BEGIN Configuration File: ./HC.conf
injection_rate = 0.01;
traffic = uniform;
use_size_power_of_two = no;
routing_function = min;
vc_buf_size = 16;
network_file = HC.10.bsconf;
load_routing_file = no;
routing_table_file = HC.10.bsconf;
topology = anynet;
use_noc_latency = 0;
hold_switch_for_packet=0;

k = 1;

packet_size  = 1;
num_vcs      = 4;
vc_allocator = separable_input_first; 
sw_allocator = separable_input_first;

alloc_iters   = 1;
sample_period = 500;

wait_for_tail_credit = 0;
use_read_write       = 0;

credit_delay   = 2;
routing_delay  = 0;
vc_alloc_delay = 1;
sw_alloc_delay = 1;
st_final_delay = 1;

input_speedup     = 1;
output_speedup    = 1;
internal_speedup  = 2.0;

warmup_periods = 3;
sim_count      = 1;

priority = none;
injection_rate_uses_flits=1;
injection_rate = 0.01;
traffic = uniform;
use_size_power_of_two = no;
routing_function = min;
vc_buf_size = 16;
network_file = HC.6.bsconf;
load_routing_file = no;
routing_table_file = HC.6.bsconf;
topology = anynet;
use_noc_latency = 0;
hold_switch_for_packet=0;

k = 1;

packet_size  = 1;
num_vcs      = 4;
vc_allocator = separable_input_first; 
sw_allocator = separable_input_first;

alloc_iters   = 1;
sample_period = 500;

wait_for_tail_credit = 0;
use_read_write       = 0;

credit_delay   = 2;
routing_delay  = 0;
vc_alloc_delay = 1;
sw_alloc_delay = 1;
st_final_delay = 1;

input_speedup     = 1;
output_speedup    = 1;
internal_speedup  = 2.0;

warmup_periods = 3;
sim_count      = 1;

priority = none;
injection_rate_uses_flits=1;

END Configuration File: ./HC.conf
========================Network File Parsed=================
******************node listing**********************

****************router to node listing*************

*****************router to router listing************
Number of nodes: 64
Number of routers: 64
==========================Node to Router =====================
==========================Router to Router =====================
========================== Build Routing table  =====================
Start searching...Routing table for router 0 done  |Start searching...Routing table for router 1 done  |Start searching...Routing table for router 2 done  |Start searching...Routing table for router 3 done  |Start searching...Routing table for router 4 done  |Start searching...Routing table for router 5 done  |Start searching...Routing table for router 6 done  |Start searching...Routing table for router 7 done  |Start searching...Routing table for router 8 done  |Start searching...Routing table for router 9 done  |Start searching...Routing table for router 10 done  |Start searching...Routing table for router 11 done  |Start searching...Routing table for router 12 done  |Start searching...Routing table for router 13 done  |Start searching...Routing table for router 14 done  |Start searching...Routing table for router 15 done  |Start searching...Routing table for router 16 done  |Start searching...Routing table for router 17 done  |Start searching...Routing table for router 18 done  |Start searching...Routing table for router 19 done  |Start searching...Routing table for router 20 done  |Start searching...Routing table for router 21 done  |Start searching...Routing table for router 22 done  |Start searching...Routing table for router 23 done  |Start searching...Routing table for router 24 done  |Start searching...Routing table for router 25 done  |Start searching...Routing table for router 26 done  |Start searching...Routing table for router 27 done  |Start searching...Routing table for router 28 done  |Start searching...Routing table for router 29 done  |Start searching...Routing table for router 30 done  |Start searching...Routing table for router 31 done  |Start searching...Routing table for router 32 done  |Start searching...Routing table for router 33 done  |Start searching...Routing table for router 34 done  |Start searching...Routing table for router 35 done  |Start searching...Routing table for router 36 done  |Start searching...Routing table for router 37 done  |Start searching...Routing table for router 38 done  |Start searching...Routing table for router 39 done  |Start searching...Routing table for router 40 done  |Start searching...Routing table for router 41 done  |Start searching...Routing table for router 42 done  |Start searching...Routing table for router 43 done  |Start searching...Routing table for router 44 done  |Start searching...Routing table for router 45 done  |Start searching...Routing table for router 46 done  |Start searching...Routing table for router 47 done  |Start searching...Routing table for router 48 done  |Start searching...Routing table for router 49 done  |Start searching...Routing table for router 50 done  |Start searching...Routing table for router 51 done  |Start searching...Routing table for router 52 done  |Start searching...Routing table for router 53 done  |Start searching...Routing table for router 54 done  |Start searching...Routing table for router 55 done  |Start searching...Routing table for router 56 done  |Start searching...Routing table for router 57 done  |Start searching...Routing table for router 58 done  |Start searching...Routing table for router 59 done  |Start searching...Routing table for router 60 done  |Start searching...Routing table for router 61 done  |Start searching...Routing table for router 62 done  |Start searching...Routing table for router 63 done  |
========================== Build Routing table done  =====================

========================== Building Bad traffic pattern, type 2... ============================
=================== Finished building bad traffic pattern... ====================
Sum of nodes sending: 64
Sum of nodes: 64
0
Class 0:
Minimum packet latency = 5
Average packet latency = 13.6908
Maximum packet latency = 23
Minimum network latency = 5
Average network latency = 13.6908
Maximum network latency = 23
Slowest packet = 122
Minimum flit latency = 5
Average flit latency = 13.6908
Maximum flit latency = 23
Slowest flit = 122
Minimum fragmentation = 0
Average fragmentation = 0
Maximum fragmentation = 0
Minimum injected packet rate = 0.002 (at node 11)
Average injected packet rate = 0.009625
Maximum injected packet rate = 0.018 (at node 16)
Minimum accepted packet rate = 0 (at node 29)
Average accepted packet rate = 0.0095
Maximum accepted packet rate = 0.022 (at node 18)
Minimum injected flit rate = 0.002 (at node 11)
Average injected flit rate = 0.009625
Maximum injected flit rate = 0.018 (at node 16)
Minimum accepted flit rate = 0 (at node 29)
Average accepted flit rate = 0.0095
Maximum accepted flit rate = 0.022 (at node 18)
Average injected packet length = 1
Average accepted packet length = 1
Total in-flight flits = 4 (0 measured)
latency change    = 1
throughput change = 1
0
Class 0:
Minimum packet latency = 5
Average packet latency = 13.9441
Maximum packet latency = 24
Minimum network latency = 5
Average network latency = 13.9441
Maximum network latency = 24
Slowest packet = 335
Minimum flit latency = 5
Average flit latency = 13.9441
Maximum flit latency = 24
Slowest flit = 335
Minimum fragmentation = 0
Average fragmentation = 0
Maximum fragmentation = 0
Minimum injected packet rate = 0.003 (at node 21)
Average injected packet rate = 0.00960937
Maximum injected packet rate = 0.015 (at node 18)
Minimum accepted packet rate = 0.005 (at node 11)
Average accepted packet rate = 0.0095
Maximum accepted packet rate = 0.017 (at node 12)
Minimum injected flit rate = 0.003 (at node 21)
Average injected flit rate = 0.00960937
Maximum injected flit rate = 0.015 (at node 18)
Minimum accepted flit rate = 0.005 (at node 11)
Average accepted flit rate = 0.0095
Maximum accepted flit rate = 0.017 (at node 12)
Average injected packet length = 1
Average accepted packet length = 1
Total in-flight flits = 7 (0 measured)
latency change    = 0.0181647
throughput change = 0
0
Class 0:
Minimum packet latency = 5
Average packet latency = 13.8439
Maximum packet latency = 23
Minimum network latency = 5
Average network latency = 13.8439
Maximum network latency = 23
Slowest packet = 625
Minimum flit latency = 5
Average flit latency = 13.8439
Maximum flit latency = 23
Slowest flit = 625
Minimum fragmentation = 0
Average fragmentation = 0
Maximum fragmentation = 0
Minimum injected packet rate = 0.002 (at node 12)
Average injected packet rate = 0.00946875
Maximum injected packet rate = 0.018 (at node 33)
Minimum accepted packet rate = 0 (at node 15)
Average accepted packet rate = 0.00940625
Maximum accepted packet rate = 0.022 (at node 6)
Minimum injected flit rate = 0.002 (at node 12)
Average injected flit rate = 0.00946875
Maximum injected flit rate = 0.018 (at node 33)
Minimum accepted flit rate = 0 (at node 15)
Average accepted flit rate = 0.00940625
Maximum accepted flit rate = 0.022 (at node 6)
Average injected packet length = 1
Average accepted packet length = 1
Total in-flight flits = 9 (0 measured)
latency change    = 0.00723968
throughput change = 0.00996678
Warmed up ...Time used is 1500 cycles
1
Class 0:
Minimum packet latency = 5
Average packet latency = 14.3894
Maximum packet latency = 23
Minimum network latency = 5
Average network latency = 14.3894
Maximum network latency = 23
Slowest packet = 935
Minimum flit latency = 5
Average flit latency = 14.4061
Maximum flit latency = 23
Slowest flit = 935
Minimum fragmentation = 0
Average fragmentation = 0
Maximum fragmentation = 0
Minimum injected packet rate = 0.002 (at node 28)
Average injected packet rate = 0.0104063
Maximum injected packet rate = 0.026 (at node 45)
Minimum accepted packet rate = 0.002 (at node 25)
Average accepted packet rate = 0.0103125
Maximum accepted packet rate = 0.02 (at node 20)
Minimum injected flit rate = 0.002 (at node 28)
Average injected flit rate = 0.0104063
Maximum injected flit rate = 0.026 (at node 45)
Minimum accepted flit rate = 0.002 (at node 25)
Average accepted flit rate = 0.0103125
Maximum accepted flit rate = 0.02 (at node 20)
Average injected packet length = 1
Average accepted packet length = 1
Total in-flight flits = 12 (12 measured)
latency change    = 0.0379136
throughput change = 0.0878788
1
Class 0:
Minimum packet latency = 5
Average packet latency = 14.1792
Maximum packet latency = 23
Minimum network latency = 5
Average network latency = 14.1792
Maximum network latency = 23
Slowest packet = 935
Minimum flit latency = 5
Average flit latency = 14.1903
Maximum flit latency = 23
Slowest flit = 935
Minimum fragmentation = 0
Average fragmentation = 0
Maximum fragmentation = 0
Minimum injected packet rate = 0.004 (at node 5)
Average injected packet rate = 0.0104063
Maximum injected packet rate = 0.024 (at node 1)
Minimum accepted packet rate = 0.004 (at node 19)
Average accepted packet rate = 0.0103438
Maximum accepted packet rate = 0.02 (at node 27)
Minimum injected flit rate = 0.004 (at node 5)
Average injected flit rate = 0.0104063
Maximum injected flit rate = 0.024 (at node 1)
Minimum accepted flit rate = 0.004 (at node 19)
Average accepted flit rate = 0.0103438
Maximum accepted flit rate = 0.02 (at node 27)
Average injected packet length = 1
Average accepted packet length = 1
Total in-flight flits = 13 (13 measured)
latency change    = 0.014827
throughput change = 0.00302115
1
Class 0:
Minimum packet latency = 5
Average packet latency = 14.0516
Maximum packet latency = 23
Minimum network latency = 5
Average network latency = 14.0516
Maximum network latency = 23
Slowest packet = 935
Minimum flit latency = 5
Average flit latency = 14.0601
Maximum flit latency = 23
Slowest flit = 935
Minimum fragmentation = 0
Average fragmentation = 0
Maximum fragmentation = 0
Minimum injected packet rate = 0.006 (at node 4)
Average injected packet rate = 0.0103542
Maximum injected packet rate = 0.0213333 (at node 1)
Minimum accepted packet rate = 0.00666667 (at node 21)
Average accepted packet rate = 0.0103958
Maximum accepted packet rate = 0.0173333 (at node 40)
Minimum injected flit rate = 0.006 (at node 4)
Average injected flit rate = 0.0103542
Maximum injected flit rate = 0.0213333 (at node 1)
Minimum accepted flit rate = 0.00666667 (at node 21)
Average accepted flit rate = 0.0103958
Maximum accepted flit rate = 0.0173333 (at node 40)
Average injected packet length = 1
Average accepted packet length = 1
Total in-flight flits = 5 (5 measured)
latency change    = 0.00908125
throughput change = 0.00501002
1
Class 0:
Minimum packet latency = 5
Average packet latency = 14.0501
Maximum packet latency = 23
Minimum network latency = 5
Average network latency = 14.0501
Maximum network latency = 23
Slowest packet = 935
Minimum flit latency = 5
Average flit latency = 14.0565
Maximum flit latency = 23
Slowest flit = 935
Minimum fragmentation = 0
Average fragmentation = 0
Maximum fragmentation = 0
Minimum injected packet rate = 0.0055 (at node 30)
Average injected packet rate = 0.0103281
Maximum injected packet rate = 0.019 (at node 1)
Minimum accepted packet rate = 0.0055 (at node 53)
Average accepted packet rate = 0.0103672
Maximum accepted packet rate = 0.0165 (at node 40)
Minimum injected flit rate = 0.0055 (at node 30)
Average injected flit rate = 0.0103281
Maximum injected flit rate = 0.019 (at node 1)
Minimum accepted flit rate = 0.0055 (at node 53)
Average accepted flit rate = 0.0103672
Maximum accepted flit rate = 0.0165 (at node 40)
Average injected packet length = 1
Average accepted packet length = 1
Total in-flight flits = 4 (4 measured)
latency change    = 0.000106147
throughput change = 0.00276312
Draining all recorded packets ...
Draining remaining packets ...
Time taken is 3527 cycles
====== Traffic class 0 ======
Overall minimum packet latency = 5 (1 samples)
Overall average packet latency = 14.0477 (1 samples)
Overall maximum packet latency = 23 (1 samples)
Overall minimum network latency = 5 (1 samples)
Overall average network latency = 14.0477 (1 samples)
Overall maximum network latency = 23 (1 samples)
Overall minimum flit latency = 5 (1 samples)
Overall average flit latency = 14.0696 (1 samples)
Overall maximum flit latency = 23 (1 samples)
Overall minimum fragmentation = 0 (1 samples)
Overall average fragmentation = 0 (1 samples)
Overall maximum fragmentation = 0 (1 samples)
Overall minimum injected packet rate = 0.0055 (1 samples)
Overall average injected packet rate = 0.0103281 (1 samples)
Overall maximum injected packet rate = 0.019 (1 samples)
Overall minimum accepted packet rate = 0.0055 (1 samples)
Overall average accepted packet rate = 0.0103672 (1 samples)
Overall maximum accepted packet rate = 0.0165 (1 samples)
Overall minimum injected flit rate = 0.0055 (1 samples)
Overall average injected flit rate = 0.0103281 (1 samples)
Overall maximum injected flit rate = 0.019 (1 samples)
Overall minimum accepted flit rate = 0.0055 (1 samples)
Overall average accepted flit rate = 0.0103672 (1 samples)
Overall maximum accepted flit rate = 0.0165 (1 samples)
Overall average injected packet size = 1 (1 samples)
Overall average accepted packet size = 1 (1 samples)
Overall average hops = 4.01135 (1 samples)
Total run time 0.833132
