BEGIN Configuration File: ./HC.conf
injection_rate = 0.01;
traffic = uniform;
use_size_power_of_two = no;
routing_function = min;
vc_buf_size = 16;
network_file = HC.10.bsconf;
load_routing_file = no;
routing_table_file = HC.10.bsconf;
topology = anynet;
use_noc_latency = 0;
hold_switch_for_packet=0;

k = 1;

packet_size  = 1;
num_vcs      = 4;
vc_allocator = separable_input_first; 
sw_allocator = separable_input_first;

alloc_iters   = 1;
sample_period = 500;

wait_for_tail_credit = 0;
use_read_write       = 0;

credit_delay   = 2;
routing_delay  = 0;
vc_alloc_delay = 1;
sw_alloc_delay = 1;
st_final_delay = 1;

input_speedup     = 1;
output_speedup    = 1;
internal_speedup  = 2.0;

warmup_periods = 3;
sim_count      = 1;

priority = none;
injection_rate_uses_flits=1;
injection_rate = 0.01;
traffic = uniform;
use_size_power_of_two = no;
routing_function = min;
vc_buf_size = 16;
network_file = HC.6.bsconf;
load_routing_file = no;
routing_table_file = HC.6.bsconf;
topology = anynet;
use_noc_latency = 0;
hold_switch_for_packet=0;

k = 1;

packet_size  = 1;
num_vcs      = 4;
vc_allocator = separable_input_first; 
sw_allocator = separable_input_first;

alloc_iters   = 1;
sample_period = 500;

wait_for_tail_credit = 0;
use_read_write       = 0;

credit_delay   = 2;
routing_delay  = 0;
vc_alloc_delay = 1;
sw_alloc_delay = 1;
st_final_delay = 1;

input_speedup     = 1;
output_speedup    = 1;
internal_speedup  = 2.0;

warmup_periods = 3;
sim_count      = 1;

priority = none;
injection_rate_uses_flits=1;
injection_rate = 0.01;
traffic = uniform;
use_size_power_of_two = no;
routing_function = min;
vc_buf_size = 16;
network_file = HC.7.bsconf;
load_routing_file = no;
routing_table_file = HC.7.bsconf;
topology = anynet;
use_noc_latency = 0;
hold_switch_for_packet=0;

k = 1;

packet_size  = 1;
num_vcs      = 4;
vc_allocator = separable_input_first; 
sw_allocator = separable_input_first;

alloc_iters   = 1;
sample_period = 500;

wait_for_tail_credit = 0;
use_read_write       = 0;

credit_delay   = 2;
routing_delay  = 0;
vc_alloc_delay = 1;
sw_alloc_delay = 1;
st_final_delay = 1;

input_speedup     = 1;
output_speedup    = 1;
internal_speedup  = 2.0;

warmup_periods = 3;
sim_count      = 1;

priority = none;
injection_rate_uses_flits=1;
injection_rate = 0.01;
traffic = uniform;
use_size_power_of_two = no;
routing_function = min;
vc_buf_size = 16;
network_file = HC.8.bsconf;
load_routing_file = no;
routing_table_file = HC.8.bsconf;
topology = anynet;
use_noc_latency = 0;
hold_switch_for_packet=0;

k = 1;

packet_size  = 1;
num_vcs      = 4;
vc_allocator = separable_input_first; 
sw_allocator = separable_input_first;

alloc_iters   = 1;
sample_period = 500;

wait_for_tail_credit = 0;
use_read_write       = 0;

credit_delay   = 2;
routing_delay  = 0;
vc_alloc_delay = 1;
sw_alloc_delay = 1;
st_final_delay = 1;

input_speedup     = 1;
output_speedup    = 1;
internal_speedup  = 2.0;

warmup_periods = 3;
sim_count      = 1;

priority = none;
injection_rate_uses_flits=1;
injection_rate = 0.01;
traffic = uniform;
use_size_power_of_two = no;
routing_function = min;
vc_buf_size = 16;
network_file = HC.9.bsconf;
load_routing_file = no;
routing_table_file = HC.9.bsconf;
topology = anynet;
use_noc_latency = 0;
hold_switch_for_packet=0;

k = 1;

packet_size  = 1;
num_vcs      = 4;
vc_allocator = separable_input_first; 
sw_allocator = separable_input_first;

alloc_iters   = 1;
sample_period = 500;

wait_for_tail_credit = 0;
use_read_write       = 0;

credit_delay   = 2;
routing_delay  = 0;
vc_alloc_delay = 1;
sw_alloc_delay = 1;
st_final_delay = 1;

input_speedup     = 1;
output_speedup    = 1;
internal_speedup  = 2.0;

warmup_periods = 3;
sim_count      = 1;

priority = none;
injection_rate_uses_flits=1;
injection_rate = 0.01;
traffic = uniform;
use_size_power_of_two = no;
routing_function = min;
vc_buf_size = 16;
network_file = HC.11.bsconf;
load_routing_file = no;
routing_table_file = HC.11.bsconf;
topology = anynet;
use_noc_latency = 0;
hold_switch_for_packet=0;

k = 1;

packet_size  = 1;
num_vcs      = 4;
vc_allocator = separable_input_first; 
sw_allocator = separable_input_first;

alloc_iters   = 1;
sample_period = 500;

wait_for_tail_credit = 0;
use_read_write       = 0;

credit_delay   = 2;
routing_delay  = 0;
vc_alloc_delay = 1;
sw_alloc_delay = 1;
st_final_delay = 1;

input_speedup     = 1;
output_speedup    = 1;
internal_speedup  = 2.0;

warmup_periods = 3;
sim_count      = 1;

priority = none;
injection_rate_uses_flits=1;

END Configuration File: ./HC.conf
========================Network File Parsed=================
******************node listing**********************

****************router to node listing*************

*****************router to router listing************
Number of nodes: 2048
Number of routers: 2048
==========================Node to Router =====================
==========================Router to Router =====================
========================== Build Routing table  =====================
Start searching...Routing table for router 0 done  |Start searching...Routing table for router 1 done  |Start searching...Routing table for router 2 done  |Start searching...Routing table for router 3 done  |Start searching...Routing table for router 4 done  |Start searching...Routing table for router 5 done  |Start searching...Routing table for router 6 done  |Start searching...Routing table for router 7 done  |Start searching...Routing table for router 8 done  |Start searching...Routing table for router 9 done  |Start searching...Routing table for router 10 done  |Start searching...Routing table for router 11 done  |Start searching...Routing table for router 12 done  |Start searching...Routing table for router 13 done  |Start searching...Routing table for router 14 done  |Start searching...Routing table for router 15 done  |Start searching...Routing table for router 16 done  |Start searching...Routing table for router 17 done  |Start searching...Routing table for router 18 done  |Start searching...Routing table for router 19 done  |Start searching...Routing table for router 20 done  |Start searching...Routing table for router 21 done  |Start searching...Routing table for router 22 done  |Start searching...Routing table for router 23 done  |Start searching...Routing table for router 24 done  |Start searching...Routing table for router 25 done  |Start searching...Routing table for router 26 done  |Start searching...Routing table for router 27 done  |Start searching...Routing table for router 28 done  |Start searching...Routing table for router 29 done  |Start searching...Routing table for router 30 done  |Start searching...Routing table for router 31 done  |Start searching...Routing table for router 32 done  |Start searching...Routing table for router 33 done  |Start searching...Routing table for router 34 done  |Start searching...Routing table for router 35 done  |Start searching...Routing table for router 36 done  |Start searching...Routing table for router 37 done  |Start searching...Routing table for router 38 done  |Start searching...Routing table for router 39 done  |Start searching...Routing table for router 40 done  |Start searching...Routing table for router 41 done  |Start searching...Routing table for router 42 done  |Start searching...Routing table for router 43 done  |Start searching...Routing table for router 44 done  |Start searching...Routing table for router 45 done  |Start searching...Routing table for router 46 done  |Start searching...Routing table for router 47 done  |Start searching...Routing table for router 48 done  |Start searching...Routing table for router 49 done  |Start searching...Routing table for router 50 done  |Start searching...Routing table for router 51 done  |Start searching...Routing table for router 52 done  |Start searching...Routing table for router 53 done  |Start searching...Routing table for router 54 done  |Start searching...Routing table for router 55 done  |Start searching...Routing table for router 56 done  |Start searching...Routing table for router 57 done  |Start searching...Routing table for router 58 done  |Start searching...Routing table for router 59 done  |Start searching...Routing table for router 60 done  |Start searching...Routing table for router 61 done  |Start searching...Routing table for router 62 done  |Start searching...Routing table for router 63 done  |Start searching...Routing table for router 64 done  |Start searching...Routing table for router 65 done  |Start searching...Routing table for router 66 done  |Start searching...Routing table for router 67 done  |Start searching...Routing table for router 68 done  |Start searching...Routing table for router 69 done  |Start searching...Routing table for router 70 done  |Start searching...Routing table for router 71 done  |Start searching...Routing table for router 72 done  |Start searching...Routing table for router 73 done  |Start searching...Routing table for router 74 done  |Start searching...Routing table for router 75 done  |Start searching...Routing table for router 76 done  |Start searching...Routing table for router 77 done  |Start searching...Routing table for router 78 done  |Start searching...Routing table for router 79 done  |Start searching...Routing table for router 80 done  |Start searching...Routing table for router 81 done  |Start searching...Routing table for router 82 done  |Start searching...Routing table for router 83 done  |Start searching...Routing table for router 84 done  |Start searching...Routing table for router 85 done  |Start searching...Routing table for router 86 done  |Start searching...Routing table for router 87 done  |Start searching...Routing table for router 88 done  |Start searching...Routing table for router 89 done  |Start searching...Routing table for router 90 done  |Start searching...Routing table for router 91 done  |Start searching...Routing table for router 92 done  |Start searching...Routing table for router 93 done  |Start searching...Routing table for router 94 done  |Start searching...Routing table for router 95 done  |Start searching...Routing table for router 96 done  |Start searching...Routing table for router 97 done  |Start searching...Routing table for router 98 done  |Start searching...Routing table for router 99 done  |Start searching...Routing table for router 100 done  |Start searching...Routing table for router 101 done  |Start searching...Routing table for router 102 done  |Start searching...Routing table for router 103 done  |Start searching...Routing table for router 104 done  |Start searching...Routing table for router 105 done  |Start searching...Routing table for router 106 done  |Start searching...Routing table for router 107 done  |Start searching...Routing table for router 108 done  |Start searching...Routing table for router 109 done  |Start searching...Routing table for router 110 done  |Start searching...Routing table for router 111 done  |Start searching...Routing table for router 112 done  |Start searching...Routing table for router 113 done  |Start searching...Routing table for router 114 done  |Start searching...Routing table for router 115 done  |Start searching...Routing table for router 116 done  |Start searching...Routing table for router 117 done  |Start searching...Routing table for router 118 done  |Start searching...Routing table for router 119 done  |Start searching...Routing table for router 120 done  |Start searching...Routing table for router 121 done  |Start searching...Routing table for router 122 done  |Start searching...Routing table for router 123 done  |Start searching...Routing table for router 124 done  |Start searching...Routing table for router 125 done  |Start searching...Routing table for router 126 done  |Start searching...Routing table for router 127 done  |Start searching...Routing table for router 128 done  |Start searching...Routing table for router 129 done  |Start searching...Routing table for router 130 done  |Start searching...Routing table for router 131 done  |Start searching...Routing table for router 132 done  |Start searching...Routing table for router 133 done  |Start searching...Routing table for router 134 done  |Start searching...Routing table for router 135 done  |Start searching...Routing table for router 136 done  |Start searching...Routing table for router 137 done  |Start searching...Routing table for router 138 done  |Start searching...Routing table for router 139 done  |Start searching...Routing table for router 140 done  |Start searching...Routing table for router 141 done  |Start searching...Routing table for router 142 done  |Start searching...Routing table for router 143 done  |Start searching...Routing table for router 144 done  |Start searching...Routing table for router 145 done  |Start searching...Routing table for router 146 done  |Start searching...Routing table for router 147 done  |Start searching...Routing table for router 148 done  |Start searching...Routing table for router 149 done  |Start searching...Routing table for router 150 done  |Start searching...Routing table for router 151 done  |Start searching...Routing table for router 152 done  |Start searching...Routing table for router 153 done  |Start searching...Routing table for router 154 done  |Start searching...Routing table for router 155 done  |Start searching...Routing table for router 156 done  |Start searching...Routing table for router 157 done  |Start searching...Routing table for router 158 done  |Start searching...Routing table for router 159 done  |Start searching...Routing table for router 160 done  |Start searching...Routing table for router 161 done  |Start searching...Routing table for router 162 done  |Start searching...Routing table for router 163 done  |Start searching...Routing table for router 164 done  |Start searching...Routing table for router 165 done  |Start searching...Routing table for router 166 done  |Start searching...Routing table for router 167 done  |Start searching...Routing table for router 168 done  |Start searching...Routing table for router 169 done  |Start searching...Routing table for router 170 done  |Start searching...Routing table for router 171 done  |Start searching...Routing table for router 172 done  |Start searching...Routing table for router 173 done  |Start searching...Routing table for router 174 done  |Start searching...Routing table for router 175 done  |Start searching...Routing table for router 176 done  |Start searching...Routing table for router 177 done  |Start searching...Routing table for router 178 done  |Start searching...Routing table for router 179 done  |Start searching...Routing table for router 180 done  |Start searching...Routing table for router 181 done  |Start searching...Routing table for router 182 done  |Start searching...Routing table for router 183 done  |Start searching...Routing table for router 184 done  |Start searching...Routing table for router 185 done  |Start searching...Routing table for router 186 done  |Start searching...Routing table for router 187 done  |Start searching...Routing table for router 188 done  |Start searching...Routing table for router 189 done  |Start searching...Routing table for router 190 done  |Start searching...Routing table for router 191 done  |Start searching...Routing table for router 192 done  |Start searching...Routing table for router 193 done  |Start searching...Routing table for router 194 done  |Start searching...Routing table for router 195 done  |Start searching...Routing table for router 196 done  |Start searching...Routing table for router 197 done  |Start searching...Routing table for router 198 done  |Start searching...Routing table for router 199 done  |Start searching...Routing table for router 200 done  |Start searching...Routing table for router 201 done  |Start searching...Routing table for router 202 done  |Start searching...Routing table for router 203 done  |Start searching...Routing table for router 204 done  |Start searching...Routing table for router 205 done  |Start searching...Routing table for router 206 done  |Start searching...Routing table for router 207 done  |Start searching...Routing table for router 208 done  |Start searching...Routing table for router 209 done  |Start searching...Routing table for router 210 done  |Start searching...Routing table for router 211 done  |Start searching...Routing table for router 212 done  |Start searching...Routing table for router 213 done  |Start searching...Routing table for router 214 done  |Start searching...Routing table for router 215 done  |Start searching...Routing table for router 216 done  |Start searching...Routing table for router 217 done  |Start searching...Routing table for router 218 done  |Start searching...Routing table for router 219 done  |Start searching...Routing table for router 220 done  |Start searching...Routing table for router 221 done  |Start searching...Routing table for router 222 done  |Start searching...Routing table for router 223 done  |Start searching...Routing table for router 224 done  |Start searching...Routing table for router 225 done  |Start searching...Routing table for router 226 done  |Start searching...Routing table for router 227 done  |Start searching...Routing table for router 228 done  |Start searching...Routing table for router 229 done  |Start searching...Routing table for router 230 done  |Start searching...Routing table for router 231 done  |Start searching...Routing table for router 232 done  |Start searching...Routing table for router 233 done  |Start searching...Routing table for router 234 done  |Start searching...Routing table for router 235 done  |Start searching...Routing table for router 236 done  |Start searching...Routing table for router 237 done  |Start searching...Routing table for router 238 done  |Start searching...Routing table for router 239 done  |Start searching...Routing table for router 240 done  |Start searching...Routing table for router 241 done  |Start searching...Routing table for router 242 done  |Start searching...Routing table for router 243 done  |Start searching...Routing table for router 244 done  |Start searching...Routing table for router 245 done  |Start searching...Routing table for router 246 done  |Start searching...Routing table for router 247 done  |Start searching...Routing table for router 248 done  |Start searching...Routing table for router 249 done  |Start searching...Routing table for router 250 done  |Start searching...Routing table for router 251 done  |Start searching...Routing table for router 252 done  |Start searching...Routing table for router 253 done  |Start searching...Routing table for router 254 done  |Start searching...Routing table for router 255 done  |Start searching...Routing table for router 256 done  |Start searching...Routing table for router 257 done  |Start searching...Routing table for router 258 done  |Start searching...Routing table for router 259 done  |Start searching...Routing table for router 260 done  |Start searching...Routing table for router 261 done  |Start searching...Routing table for router 262 done  |Start searching...Routing table for router 263 done  |Start searching...Routing table for router 264 done  |Start searching...Routing table for router 265 done  |Start searching...Routing table for router 266 done  |Start searching...Routing table for router 267 done  |Start searching...Routing table for router 268 done  |Start searching...Routing table for router 269 done  |Start searching...Routing table for router 270 done  |Start searching...Routing table for router 271 done  |Start searching...Routing table for router 272 done  |Start searching...Routing table for router 273 done  |Start searching...Routing table for router 274 done  |Start searching...Routing table for router 275 done  |Start searching...Routing table for router 276 done  |Start searching...Routing table for router 277 done  |Start searching...Routing table for router 278 done  |Start searching...Routing table for router 279 done  |Start searching...Routing table for router 280 done  |Start searching...Routing table for router 281 done  |Start searching...Routing table for router 282 done  |Start searching...Routing table for router 283 done  |Start searching...Routing table for router 284 done  |Start searching...Routing table for router 285 done  |Start searching...Routing table for router 286 done  |Start searching...Routing table for router 287 done  |Start searching...Routing table for router 288 done  |Start searching...Routing table for router 289 done  |Start searching...Routing table for router 290 done  |Start searching...Routing table for router 291 done  |Start searching...Routing table for router 292 done  |Start searching...Routing table for router 293 done  |Start searching...Routing table for router 294 done  |Start searching...Routing table for router 295 done  |Start searching...Routing table for router 296 done  |Start searching...Routing table for router 297 done  |Start searching...Routing table for router 298 done  |Start searching...Routing table for router 299 done  |Start searching...Routing table for router 300 done  |Start searching...Routing table for router 301 done  |Start searching...Routing table for router 302 done  |Start searching...Routing table for router 303 done  |Start searching...Routing table for router 304 done  |Start searching...Routing table for router 305 done  |Start searching...Routing table for router 306 done  |Start searching...Routing table for router 307 done  |Start searching...Routing table for router 308 done  |Start searching...Routing table for router 309 done  |Start searching...Routing table for router 310 done  |Start searching...Routing table for router 311 done  |Start searching...Routing table for router 312 done  |Start searching...Routing table for router 313 done  |Start searching...Routing table for router 314 done  |Start searching...Routing table for router 315 done  |Start searching...Routing table for router 316 done  |Start searching...Routing table for router 317 done  |Start searching...Routing table for router 318 done  |Start searching...Routing table for router 319 done  |Start searching...Routing table for router 320 done  |Start searching...Routing table for router 321 done  |Start searching...Routing table for router 322 done  |Start searching...Routing table for router 323 done  |Start searching...Routing table for router 324 done  |Start searching...Routing table for router 325 done  |Start searching...Routing table for router 326 done  |Start searching...Routing table for router 327 done  |Start searching...Routing table for router 328 done  |Start searching...Routing table for router 329 done  |Start searching...Routing table for router 330 done  |Start searching...Routing table for router 331 done  |Start searching...Routing table for router 332 done  |Start searching...Routing table for router 333 done  |Start searching...Routing table for router 334 done  |Start searching...Routing table for router 335 done  |Start searching...Routing table for router 336 done  |Start searching...Routing table for router 337 done  |Start searching...Routing table for router 338 done  |Start searching...Routing table for router 339 done  |Start searching...Routing table for router 340 done  |Start searching...Routing table for router 341 done  |Start searching...Routing table for router 342 done  |Start searching...Routing table for router 343 done  |Start searching...Routing table for router 344 done  |Start searching...Routing table for router 345 done  |Start searching...Routing table for router 346 done  |Start searching...Routing table for router 347 done  |Start searching...Routing table for router 348 done  |Start searching...Routing table for router 349 done  |Start searching...Routing table for router 350 done  |Start searching...Routing table for router 351 done  |Start searching...Routing table for router 352 done  |Start searching...Routing table for router 353 done  |Start searching...Routing table for router 354 done  |Start searching...Routing table for router 355 done  |Start searching...Routing table for router 356 done  |Start searching...Routing table for router 357 done  |Start searching...Routing table for router 358 done  |Start searching...Routing table for router 359 done  |Start searching...Routing table for router 360 done  |Start searching...Routing table for router 361 done  |Start searching...Routing table for router 362 done  |Start searching...Routing table for router 363 done  |Start searching...Routing table for router 364 done  |Start searching...Routing table for router 365 done  |Start searching...Routing table for router 366 done  |Start searching...Routing table for router 367 done  |Start searching...Routing table for router 368 done  |Start searching...Routing table for router 369 done  |Start searching...Routing table for router 370 done  |Start searching...Routing table for router 371 done  |Start searching...Routing table for router 372 done  |Start searching...Routing table for router 373 done  |Start searching...Routing table for router 374 done  |Start searching...Routing table for router 375 done  |Start searching...Routing table for router 376 done  |Start searching...Routing table for router 377 done  |Start searching...Routing table for router 378 done  |Start searching...Routing table for router 379 done  |Start searching...Routing table for router 380 done  |Start searching...Routing table for router 381 done  |Start searching...Routing table for router 382 done  |Start searching...Routing table for router 383 done  |Start searching...Routing table for router 384 done  |Start searching...Routing table for router 385 done  |Start searching...Routing table for router 386 done  |Start searching...Routing table for router 387 done  |Start searching...Routing table for router 388 done  |Start searching...Routing table for router 389 done  |Start searching...Routing table for router 390 done  |Start searching...Routing table for router 391 done  |Start searching...Routing table for router 392 done  |Start searching...Routing table for router 393 done  |Start searching...Routing table for router 394 done  |Start searching...Routing table for router 395 done  |Start searching...Routing table for router 396 done  |Start searching...Routing table for router 397 done  |Start searching...Routing table for router 398 done  |Start searching...Routing table for router 399 done  |Start searching...Routing table for router 400 done  |Start searching...Routing table for router 401 done  |Start searching...Routing table for router 402 done  |Start searching...Routing table for router 403 done  |Start searching...Routing table for router 404 done  |Start searching...Routing table for router 405 done  |Start searching...Routing table for router 406 done  |Start searching...Routing table for router 407 done  |Start searching...Routing table for router 408 done  |Start searching...Routing table for router 409 done  |Start searching...Routing table for router 410 done  |Start searching...Routing table for router 411 done  |Start searching...Routing table for router 412 done  |Start searching...Routing table for router 413 done  |Start searching...Routing table for router 414 done  |Start searching...Routing table for router 415 done  |Start searching...Routing table for router 416 done  |Start searching...Routing table for router 417 done  |Start searching...Routing table for router 418 done  |Start searching...Routing table for router 419 done  |Start searching...Routing table for router 420 done  |Start searching...Routing table for router 421 done  |Start searching...Routing table for router 422 done  |Start searching...Routing table for router 423 done  |Start searching...Routing table for router 424 done  |Start searching...Routing table for router 425 done  |Start searching...Routing table for router 426 done  |Start searching...Routing table for router 427 done  |Start searching...Routing table for router 428 done  |Start searching...Routing table for router 429 done  |Start searching...Routing table for router 430 done  |Start searching...Routing table for router 431 done  |Start searching...Routing table for router 432 done  |Start searching...Routing table for router 433 done  |Start searching...Routing table for router 434 done  |Start searching...Routing table for router 435 done  |Start searching...Routing table for router 436 done  |Start searching...Routing table for router 437 done  |Start searching...Routing table for router 438 done  |Start searching...Routing table for router 439 done  |Start searching...Routing table for router 440 done  |Start searching...Routing table for router 441 done  |Start searching...Routing table for router 442 done  |Start searching...Routing table for router 443 done  |Start searching...Routing table for router 444 done  |Start searching...Routing table for router 445 done  |Start searching...Routing table for router 446 done  |Start searching...Routing table for router 447 done  |Start searching...Routing table for router 448 done  |Start searching...Routing table for router 449 done  |Start searching...Routing table for router 450 done  |Start searching...Routing table for router 451 done  |Start searching...Routing table for router 452 done  |Start searching...Routing table for router 453 done  |Start searching...Routing table for router 454 done  |Start searching...Routing table for router 455 done  |Start searching...Routing table for router 456 done  |Start searching...Routing table for router 457 done  |Start searching...Routing table for router 458 done  |Start searching...Routing table for router 459 done  |Start searching...Routing table for router 460 done  |Start searching...Routing table for router 461 done  |Start searching...Routing table for router 462 done  |Start searching...Routing table for router 463 done  |Start searching...Routing table for router 464 done  |Start searching...Routing table for router 465 done  |Start searching...Routing table for router 466 done  |Start searching...Routing table for router 467 done  |Start searching...Routing table for router 468 done  |Start searching...Routing table for router 469 done  |Start searching...Routing table for router 470 done  |Start searching...Routing table for router 471 done  |Start searching...Routing table for router 472 done  |Start searching...Routing table for router 473 done  |Start searching...Routing table for router 474 done  |Start searching...Routing table for router 475 done  |Start searching...Routing table for router 476 done  |Start searching...Routing table for router 477 done  |Start searching...Routing table for router 478 done  |Start searching...Routing table for router 479 done  |Start searching...Routing table for router 480 done  |Start searching...Routing table for router 481 done  |Start searching...Routing table for router 482 done  |Start searching...Routing table for router 483 done  |Start searching...Routing table for router 484 done  |Start searching...Routing table for router 485 done  |Start searching...Routing table for router 486 done  |Start searching...Routing table for router 487 done  |Start searching...Routing table for router 488 done  |Start searching...Routing table for router 489 done  |Start searching...Routing table for router 490 done  |Start searching...Routing table for router 491 done  |Start searching...Routing table for router 492 done  |Start searching...Routing table for router 493 done  |Start searching...Routing table for router 494 done  |Start searching...Routing table for router 495 done  |Start searching...Routing table for router 496 done  |Start searching...Routing table for router 497 done  |Start searching...Routing table for router 498 done  |Start searching...Routing table for router 499 done  |Start searching...Routing table for router 500 done  |Start searching...Routing table for router 501 done  |Start searching...Routing table for router 502 done  |Start searching...Routing table for router 503 done  |Start searching...Routing table for router 504 done  |Start searching...Routing table for router 505 done  |Start searching...Routing table for router 506 done  |Start searching...Routing table for router 507 done  |Start searching...Routing table for router 508 done  |Start searching...Routing table for router 509 done  |Start searching...Routing table for router 510 done  |Start searching...Routing table for router 511 done  |Start searching...Routing table for router 512 done  |Start searching...Routing table for router 513 done  |Start searching...Routing table for router 514 done  |Start searching...Routing table for router 515 done  |Start searching...Routing table for router 516 done  |Start searching...Routing table for router 517 done  |Start searching...Routing table for router 518 done  |Start searching...Routing table for router 519 done  |Start searching...Routing table for router 520 done  |Start searching...Routing table for router 521 done  |Start searching...Routing table for router 522 done  |Start searching...Routing table for router 523 done  |Start searching...Routing table for router 524 done  |Start searching...Routing table for router 525 done  |Start searching...Routing table for router 526 done  |Start searching...Routing table for router 527 done  |Start searching...Routing table for router 528 done  |Start searching...Routing table for router 529 done  |Start searching...Routing table for router 530 done  |Start searching...Routing table for router 531 done  |Start searching...Routing table for router 532 done  |Start searching...Routing table for router 533 done  |Start searching...Routing table for router 534 done  |Start searching...Routing table for router 535 done  |Start searching...Routing table for router 536 done  |Start searching...Routing table for router 537 done  |Start searching...Routing table for router 538 done  |Start searching...Routing table for router 539 done  |Start searching...Routing table for router 540 done  |Start searching...Routing table for router 541 done  |Start searching...Routing table for router 542 done  |Start searching...Routing table for router 543 done  |Start searching...Routing table for router 544 done  |Start searching...Routing table for router 545 done  |Start searching...Routing table for router 546 done  |Start searching...Routing table for router 547 done  |Start searching...Routing table for router 548 done  |Start searching...Routing table for router 549 done  |Start searching...Routing table for router 550 done  |Start searching...Routing table for router 551 done  |Start searching...Routing table for router 552 done  |Start searching...Routing table for router 553 done  |Start searching...Routing table for router 554 done  |Start searching...Routing table for router 555 done  |Start searching...Routing table for router 556 done  |Start searching...Routing table for router 557 done  |Start searching...Routing table for router 558 done  |Start searching...Routing table for router 559 done  |Start searching...Routing table for router 560 done  |Start searching...Routing table for router 561 done  |Start searching...Routing table for router 562 done  |Start searching...Routing table for router 563 done  |Start searching...Routing table for router 564 done  |Start searching...Routing table for router 565 done  |Start searching...Routing table for router 566 done  |Start searching...Routing table for router 567 done  |Start searching...Routing table for router 568 done  |Start searching...Routing table for router 569 done  |Start searching...Routing table for router 570 done  |Start searching...Routing table for router 571 done  |Start searching...Routing table for router 572 done  |Start searching...Routing table for router 573 done  |Start searching...Routing table for router 574 done  |Start searching...Routing table for router 575 done  |Start searching...Routing table for router 576 done  |Start searching...Routing table for router 577 done  |Start searching...Routing table for router 578 done  |Start searching...Routing table for router 579 done  |Start searching...Routing table for router 580 done  |Start searching...Routing table for router 581 done  |Start searching...Routing table for router 582 done  |Start searching...Routing table for router 583 done  |Start searching...Routing table for router 584 done  |Start searching...Routing table for router 585 done  |Start searching...Routing table for router 586 done  |Start searching...Routing table for router 587 done  |Start searching...Routing table for router 588 done  |Start searching...Routing table for router 589 done  |Start searching...Routing table for router 590 done  |Start searching...Routing table for router 591 done  |Start searching...Routing table for router 592 done  |Start searching...Routing table for router 593 done  |Start searching...Routing table for router 594 done  |Start searching...Routing table for router 595 done  |Start searching...Routing table for router 596 done  |Start searching...Routing table for router 597 done  |Start searching...Routing table for router 598 done  |Start searching...Routing table for router 599 done  |Start searching...Routing table for router 600 done  |Start searching...Routing table for router 601 done  |Start searching...Routing table for router 602 done  |Start searching...Routing table for router 603 done  |Start searching...Routing table for router 604 done  |Start searching...Routing table for router 605 done  |Start searching...Routing table for router 606 done  |Start searching...Routing table for router 607 done  |Start searching...Routing table for router 608 done  |Start searching...Routing table for router 609 done  |Start searching...Routing table for router 610 done  |Start searching...Routing table for router 611 done  |Start searching...Routing table for router 612 done  |Start searching...Routing table for router 613 done  |Start searching...Routing table for router 614 done  |Start searching...Routing table for router 615 done  |Start searching...Routing table for router 616 done  |Start searching...Routing table for router 617 done  |Start searching...Routing table for router 618 done  |Start searching...Routing table for router 619 done  |Start searching...Routing table for router 620 done  |Start searching...Routing table for router 621 done  |Start searching...Routing table for router 622 done  |Start searching...Routing table for router 623 done  |Start searching...Routing table for router 624 done  |Start searching...Routing table for router 625 done  |Start searching...Routing table for router 626 done  |Start searching...Routing table for router 627 done  |Start searching...Routing table for router 628 done  |Start searching...Routing table for router 629 done  |Start searching...Routing table for router 630 done  |Start searching...Routing table for router 631 done  |Start searching...Routing table for router 632 done  |Start searching...Routing table for router 633 done  |Start searching...Routing table for router 634 done  |Start searching...Routing table for router 635 done  |Start searching...Routing table for router 636 done  |Start searching...Routing table for router 637 done  |Start searching...Routing table for router 638 done  |Start searching...Routing table for router 639 done  |Start searching...Routing table for router 640 done  |Start searching...Routing table for router 641 done  |Start searching...Routing table for router 642 done  |Start searching...Routing table for router 643 done  |Start searching...Routing table for router 644 done  |Start searching...Routing table for router 645 done  |Start searching...Routing table for router 646 done  |Start searching...Routing table for router 647 done  |Start searching...Routing table for router 648 done  |Start searching...Routing table for router 649 done  |Start searching...Routing table for router 650 done  |Start searching...Routing table for router 651 done  |Start searching...Routing table for router 652 done  |Start searching...Routing table for router 653 done  |Start searching...Routing table for router 654 done  |Start searching...Routing table for router 655 done  |Start searching...Routing table for router 656 done  |Start searching...Routing table for router 657 done  |Start searching...Routing table for router 658 done  |Start searching...Routing table for router 659 done  |Start searching...Routing table for router 660 done  |Start searching...Routing table for router 661 done  |Start searching...Routing table for router 662 done  |Start searching...Routing table for router 663 done  |Start searching...Routing table for router 664 done  |Start searching...Routing table for router 665 done  |Start searching...Routing table for router 666 done  |Start searching...Routing table for router 667 done  |Start searching...Routing table for router 668 done  |Start searching...Routing table for router 669 done  |Start searching...Routing table for router 670 done  |Start searching...Routing table for router 671 done  |Start searching...Routing table for router 672 done  |Start searching...Routing table for router 673 done  |Start searching...Routing table for router 674 done  |Start searching...Routing table for router 675 done  |Start searching...Routing table for router 676 done  |Start searching...Routing table for router 677 done  |Start searching...Routing table for router 678 done  |Start searching...Routing table for router 679 done  |Start searching...Routing table for router 680 done  |Start searching...Routing table for router 681 done  |Start searching...Routing table for router 682 done  |Start searching...Routing table for router 683 done  |Start searching...Routing table for router 684 done  |Start searching...Routing table for router 685 done  |Start searching...Routing table for router 686 done  |Start searching...Routing table for router 687 done  |Start searching...Routing table for router 688 done  |Start searching...Routing table for router 689 done  |Start searching...Routing table for router 690 done  |Start searching...Routing table for router 691 done  |Start searching...Routing table for router 692 done  |Start searching...Routing table for router 693 done  |Start searching...Routing table for router 694 done  |Start searching...Routing table for router 695 done  |Start searching...Routing table for router 696 done  |Start searching...Routing table for router 697 done  |Start searching...Routing table for router 698 done  |Start searching...Routing table for router 699 done  |Start searching...Routing table for router 700 done  |Start searching...Routing table for router 701 done  |Start searching...Routing table for router 702 done  |Start searching...Routing table for router 703 done  |Start searching...Routing table for router 704 done  |Start searching...Routing table for router 705 done  |Start searching...Routing table for router 706 done  |Start searching...Routing table for router 707 done  |Start searching...Routing table for router 708 done  |Start searching...Routing table for router 709 done  |Start searching...Routing table for router 710 done  |Start searching...Routing table for router 711 done  |Start searching...Routing table for router 712 done  |Start searching...Routing table for router 713 done  |Start searching...Routing table for router 714 done  |Start searching...Routing table for router 715 done  |Start searching...Routing table for router 716 done  |Start searching...Routing table for router 717 done  |Start searching...Routing table for router 718 done  |Start searching...Routing table for router 719 done  |Start searching...Routing table for router 720 done  |Start searching...Routing table for router 721 done  |Start searching...Routing table for router 722 done  |Start searching...Routing table for router 723 done  |Start searching...Routing table for router 724 done  |Start searching...Routing table for router 725 done  |Start searching...Routing table for router 726 done  |Start searching...Routing table for router 727 done  |Start searching...Routing table for router 728 done  |Start searching...Routing table for router 729 done  |Start searching...Routing table for router 730 done  |Start searching...Routing table for router 731 done  |Start searching...Routing table for router 732 done  |Start searching...Routing table for router 733 done  |Start searching...Routing table for router 734 done  |Start searching...Routing table for router 735 done  |Start searching...Routing table for router 736 done  |Start searching...Routing table for router 737 done  |Start searching...Routing table for router 738 done  |Start searching...Routing table for router 739 done  |Start searching...Routing table for router 740 done  |Start searching...Routing table for router 741 done  |Start searching...Routing table for router 742 done  |Start searching...Routing table for router 743 done  |Start searching...Routing table for router 744 done  |Start searching...Routing table for router 745 done  |Start searching...Routing table for router 746 done  |Start searching...Routing table for router 747 done  |Start searching...Routing table for router 748 done  |Start searching...Routing table for router 749 done  |Start searching...Routing table for router 750 done  |Start searching...Routing table for router 751 done  |Start searching...Routing table for router 752 done  |Start searching...Routing table for router 753 done  |Start searching...Routing table for router 754 done  |Start searching...Routing table for router 755 done  |Start searching...Routing table for router 756 done  |Start searching...Routing table for router 757 done  |Start searching...Routing table for router 758 done  |Start searching...Routing table for router 759 done  |Start searching...Routing table for router 760 done  |Start searching...Routing table for router 761 done  |Start searching...Routing table for router 762 done  |Start searching...Routing table for router 763 done  |Start searching...Routing table for router 764 done  |Start searching...Routing table for router 765 done  |Start searching...Routing table for router 766 done  |Start searching...Routing table for router 767 done  |Start searching...Routing table for router 768 done  |Start searching...Routing table for router 769 done  |Start searching...Routing table for router 770 done  |Start searching...Routing table for router 771 done  |Start searching...Routing table for router 772 done  |Start searching...Routing table for router 773 done  |Start searching...Routing table for router 774 done  |Start searching...Routing table for router 775 done  |Start searching...Routing table for router 776 done  |Start searching...Routing table for router 777 done  |Start searching...Routing table for router 778 done  |Start searching...Routing table for router 779 done  |Start searching...Routing table for router 780 done  |Start searching...Routing table for router 781 done  |Start searching...Routing table for router 782 done  |Start searching...Routing table for router 783 done  |Start searching...Routing table for router 784 done  |Start searching...Routing table for router 785 done  |Start searching...Routing table for router 786 done  |Start searching...Routing table for router 787 done  |Start searching...Routing table for router 788 done  |Start searching...Routing table for router 789 done  |Start searching...Routing table for router 790 done  |Start searching...Routing table for router 791 done  |Start searching...Routing table for router 792 done  |Start searching...Routing table for router 793 done  |Start searching...Routing table for router 794 done  |Start searching...Routing table for router 795 done  |Start searching...Routing table for router 796 done  |Start searching...Routing table for router 797 done  |Start searching...Routing table for router 798 done  |Start searching...Routing table for router 799 done  |Start searching...Routing table for router 800 done  |Start searching...Routing table for router 801 done  |Start searching...Routing table for router 802 done  |Start searching...Routing table for router 803 done  |Start searching...Routing table for router 804 done  |Start searching...Routing table for router 805 done  |Start searching...Routing table for router 806 done  |Start searching...Routing table for router 807 done  |Start searching...Routing table for router 808 done  |Start searching...Routing table for router 809 done  |Start searching...Routing table for router 810 done  |Start searching...Routing table for router 811 done  |Start searching...Routing table for router 812 done  |Start searching...Routing table for router 813 done  |Start searching...Routing table for router 814 done  |Start searching...Routing table for router 815 done  |Start searching...Routing table for router 816 done  |Start searching...Routing table for router 817 done  |Start searching...Routing table for router 818 done  |Start searching...Routing table for router 819 done  |Start searching...Routing table for router 820 done  |Start searching...Routing table for router 821 done  |Start searching...Routing table for router 822 done  |Start searching...Routing table for router 823 done  |Start searching...Routing table for router 824 done  |Start searching...Routing table for router 825 done  |Start searching...Routing table for router 826 done  |Start searching...Routing table for router 827 done  |Start searching...Routing table for router 828 done  |Start searching...Routing table for router 829 done  |Start searching...Routing table for router 830 done  |Start searching...Routing table for router 831 done  |Start searching...Routing table for router 832 done  |Start searching...Routing table for router 833 done  |Start searching...Routing table for router 834 done  |Start searching...Routing table for router 835 done  |Start searching...Routing table for router 836 done  |Start searching...Routing table for router 837 done  |Start searching...Routing table for router 838 done  |Start searching...Routing table for router 839 done  |Start searching...Routing table for router 840 done  |Start searching...Routing table for router 841 done  |Start searching...Routing table for router 842 done  |Start searching...Routing table for router 843 done  |Start searching...Routing table for router 844 done  |Start searching...Routing table for router 845 done  |Start searching...Routing table for router 846 done  |Start searching...Routing table for router 847 done  |Start searching...Routing table for router 848 done  |Start searching...Routing table for router 849 done  |Start searching...Routing table for router 850 done  |Start searching...Routing table for router 851 done  |Start searching...Routing table for router 852 done  |Start searching...Routing table for router 853 done  |Start searching...Routing table for router 854 done  |Start searching...Routing table for router 855 done  |Start searching...Routing table for router 856 done  |Start searching...Routing table for router 857 done  |Start searching...Routing table for router 858 done  |Start searching...Routing table for router 859 done  |Start searching...Routing table for router 860 done  |Start searching...Routing table for router 861 done  |Start searching...Routing table for router 862 done  |Start searching...Routing table for router 863 done  |Start searching...Routing table for router 864 done  |Start searching...Routing table for router 865 done  |Start searching...Routing table for router 866 done  |Start searching...Routing table for router 867 done  |Start searching...Routing table for router 868 done  |Start searching...Routing table for router 869 done  |Start searching...Routing table for router 870 done  |Start searching...Routing table for router 871 done  |Start searching...Routing table for router 872 done  |Start searching...Routing table for router 873 done  |Start searching...Routing table for router 874 done  |Start searching...Routing table for router 875 done  |Start searching...Routing table for router 876 done  |Start searching...Routing table for router 877 done  |Start searching...Routing table for router 878 done  |Start searching...Routing table for router 879 done  |Start searching...Routing table for router 880 done  |Start searching...Routing table for router 881 done  |Start searching...Routing table for router 882 done  |Start searching...Routing table for router 883 done  |Start searching...Routing table for router 884 done  |Start searching...Routing table for router 885 done  |Start searching...Routing table for router 886 done  |Start searching...Routing table for router 887 done  |Start searching...Routing table for router 888 done  |Start searching...Routing table for router 889 done  |Start searching...Routing table for router 890 done  |Start searching...Routing table for router 891 done  |Start searching...Routing table for router 892 done  |Start searching...Routing table for router 893 done  |Start searching...Routing table for router 894 done  |Start searching...Routing table for router 895 done  |Start searching...Routing table for router 896 done  |Start searching...Routing table for router 897 done  |Start searching...Routing table for router 898 done  |Start searching...Routing table for router 899 done  |Start searching...Routing table for router 900 done  |Start searching...Routing table for router 901 done  |Start searching...Routing table for router 902 done  |Start searching...Routing table for router 903 done  |Start searching...Routing table for router 904 done  |Start searching...Routing table for router 905 done  |Start searching...Routing table for router 906 done  |Start searching...Routing table for router 907 done  |Start searching...Routing table for router 908 done  |Start searching...Routing table for router 909 done  |Start searching...Routing table for router 910 done  |Start searching...Routing table for router 911 done  |Start searching...Routing table for router 912 done  |Start searching...Routing table for router 913 done  |Start searching...Routing table for router 914 done  |Start searching...Routing table for router 915 done  |Start searching...Routing table for router 916 done  |Start searching...Routing table for router 917 done  |Start searching...Routing table for router 918 done  |Start searching...Routing table for router 919 done  |Start searching...Routing table for router 920 done  |Start searching...Routing table for router 921 done  |Start searching...Routing table for router 922 done  |Start searching...Routing table for router 923 done  |Start searching...Routing table for router 924 done  |Start searching...Routing table for router 925 done  |Start searching...Routing table for router 926 done  |Start searching...Routing table for router 927 done  |Start searching...Routing table for router 928 done  |Start searching...Routing table for router 929 done  |Start searching...Routing table for router 930 done  |Start searching...Routing table for router 931 done  |Start searching...Routing table for router 932 done  |Start searching...Routing table for router 933 done  |Start searching...Routing table for router 934 done  |Start searching...Routing table for router 935 done  |Start searching...Routing table for router 936 done  |Start searching...Routing table for router 937 done  |Start searching...Routing table for router 938 done  |Start searching...Routing table for router 939 done  |Start searching...Routing table for router 940 done  |Start searching...Routing table for router 941 done  |Start searching...Routing table for router 942 done  |Start searching...Routing table for router 943 done  |Start searching...Routing table for router 944 done  |Start searching...Routing table for router 945 done  |Start searching...Routing table for router 946 done  |Start searching...Routing table for router 947 done  |Start searching...Routing table for router 948 done  |Start searching...Routing table for router 949 done  |Start searching...Routing table for router 950 done  |Start searching...Routing table for router 951 done  |Start searching...Routing table for router 952 done  |Start searching...Routing table for router 953 done  |Start searching...Routing table for router 954 done  |Start searching...Routing table for router 955 done  |Start searching...Routing table for router 956 done  |Start searching...Routing table for router 957 done  |Start searching...Routing table for router 958 done  |Start searching...Routing table for router 959 done  |Start searching...Routing table for router 960 done  |Start searching...Routing table for router 961 done  |Start searching...Routing table for router 962 done  |Start searching...Routing table for router 963 done  |Start searching...Routing table for router 964 done  |Start searching...Routing table for router 965 done  |Start searching...Routing table for router 966 done  |Start searching...Routing table for router 967 done  |Start searching...Routing table for router 968 done  |Start searching...Routing table for router 969 done  |Start searching...Routing table for router 970 done  |Start searching...Routing table for router 971 done  |Start searching...Routing table for router 972 done  |Start searching...Routing table for router 973 done  |Start searching...Routing table for router 974 done  |Start searching...Routing table for router 975 done  |Start searching...Routing table for router 976 done  |Start searching...Routing table for router 977 done  |Start searching...Routing table for router 978 done  |Start searching...Routing table for router 979 done  |Start searching...Routing table for router 980 done  |Start searching...Routing table for router 981 done  |Start searching...Routing table for router 982 done  |Start searching...Routing table for router 983 done  |Start searching...Routing table for router 984 done  |Start searching...Routing table for router 985 done  |Start searching...Routing table for router 986 done  |Start searching...Routing table for router 987 done  |Start searching...Routing table for router 988 done  |Start searching...Routing table for router 989 done  |Start searching...Routing table for router 990 done  |Start searching...Routing table for router 991 done  |Start searching...Routing table for router 992 done  |Start searching...Routing table for router 993 done  |Start searching...Routing table for router 994 done  |Start searching...Routing table for router 995 done  |Start searching...Routing table for router 996 done  |Start searching...Routing table for router 997 done  |Start searching...Routing table for router 998 done  |Start searching...Routing table for router 999 done  |Start searching...Routing table for router 1000 done  |Start searching...Routing table for router 1001 done  |Start searching...Routing table for router 1002 done  |Start searching...Routing table for router 1003 done  |Start searching...Routing table for router 1004 done  |Start searching...Routing table for router 1005 done  |Start searching...Routing table for router 1006 done  |Start searching...Routing table for router 1007 done  |Start searching...Routing table for router 1008 done  |Start searching...Routing table for router 1009 done  |Start searching...Routing table for router 1010 done  |Start searching...Routing table for router 1011 done  |Start searching...Routing table for router 1012 done  |Start searching...Routing table for router 1013 done  |Start searching...Routing table for router 1014 done  |Start searching...Routing table for router 1015 done  |Start searching...Routing table for router 1016 done  |Start searching...Routing table for router 1017 done  |Start searching...Routing table for router 1018 done  |Start searching...Routing table for router 1019 done  |Start searching...Routing table for router 1020 done  |Start searching...Routing table for router 1021 done  |Start searching...Routing table for router 1022 done  |Start searching...Routing table for router 1023 done  |Start searching...Routing table for router 1024 done  |Start searching...Routing table for router 1025 done  |Start searching...Routing table for router 1026 done  |Start searching...Routing table for router 1027 done  |Start searching...Routing table for router 1028 done  |Start searching...Routing table for router 1029 done  |Start searching...Routing table for router 1030 done  |Start searching...Routing table for router 1031 done  |Start searching...Routing table for router 1032 done  |Start searching...Routing table for router 1033 done  |Start searching...Routing table for router 1034 done  |Start searching...Routing table for router 1035 done  |Start searching...Routing table for router 1036 done  |Start searching...Routing table for router 1037 done  |Start searching...Routing table for router 1038 done  |Start searching...Routing table for router 1039 done  |Start searching...Routing table for router 1040 done  |Start searching...Routing table for router 1041 done  |Start searching...Routing table for router 1042 done  |Start searching...Routing table for router 1043 done  |Start searching...Routing table for router 1044 done  |Start searching...Routing table for router 1045 done  |Start searching...Routing table for router 1046 done  |Start searching...Routing table for router 1047 done  |Start searching...Routing table for router 1048 done  |Start searching...Routing table for router 1049 done  |Start searching...Routing table for router 1050 done  |Start searching...Routing table for router 1051 done  |Start searching...Routing table for router 1052 done  |Start searching...Routing table for router 1053 done  |Start searching...Routing table for router 1054 done  |Start searching...Routing table for router 1055 done  |Start searching...Routing table for router 1056 done  |Start searching...Routing table for router 1057 done  |Start searching...Routing table for router 1058 done  |Start searching...Routing table for router 1059 done  |Start searching...Routing table for router 1060 done  |Start searching...Routing table for router 1061 done  |Start searching...Routing table for router 1062 done  |Start searching...Routing table for router 1063 done  |Start searching...Routing table for router 1064 done  |Start searching...Routing table for router 1065 done  |Start searching...Routing table for router 1066 done  |Start searching...Routing table for router 1067 done  |Start searching...Routing table for router 1068 done  |Start searching...Routing table for router 1069 done  |Start searching...Routing table for router 1070 done  |Start searching...Routing table for router 1071 done  |Start searching...Routing table for router 1072 done  |Start searching...Routing table for router 1073 done  |Start searching...Routing table for router 1074 done  |Start searching...Routing table for router 1075 done  |Start searching...Routing table for router 1076 done  |Start searching...Routing table for router 1077 done  |Start searching...Routing table for router 1078 done  |Start searching...Routing table for router 1079 done  |Start searching...Routing table for router 1080 done  |Start searching...Routing table for router 1081 done  |Start searching...Routing table for router 1082 done  |Start searching...Routing table for router 1083 done  |Start searching...Routing table for router 1084 done  |Start searching...Routing table for router 1085 done  |Start searching...Routing table for router 1086 done  |Start searching...Routing table for router 1087 done  |Start searching...Routing table for router 1088 done  |Start searching...Routing table for router 1089 done  |Start searching...Routing table for router 1090 done  |Start searching...Routing table for router 1091 done  |Start searching...Routing table for router 1092 done  |Start searching...Routing table for router 1093 done  |Start searching...Routing table for router 1094 done  |Start searching...Routing table for router 1095 done  |Start searching...Routing table for router 1096 done  |Start searching...Routing table for router 1097 done  |Start searching...Routing table for router 1098 done  |Start searching...Routing table for router 1099 done  |Start searching...Routing table for router 1100 done  |Start searching...Routing table for router 1101 done  |Start searching...Routing table for router 1102 done  |Start searching...Routing table for router 1103 done  |Start searching...Routing table for router 1104 done  |Start searching...Routing table for router 1105 done  |Start searching...Routing table for router 1106 done  |Start searching...Routing table for router 1107 done  |Start searching...Routing table for router 1108 done  |Start searching...Routing table for router 1109 done  |Start searching...Routing table for router 1110 done  |Start searching...Routing table for router 1111 done  |Start searching...Routing table for router 1112 done  |Start searching...Routing table for router 1113 done  |Start searching...Routing table for router 1114 done  |Start searching...Routing table for router 1115 done  |Start searching...Routing table for router 1116 done  |Start searching...Routing table for router 1117 done  |Start searching...Routing table for router 1118 done  |Start searching...Routing table for router 1119 done  |Start searching...Routing table for router 1120 done  |Start searching...Routing table for router 1121 done  |Start searching...Routing table for router 1122 done  |Start searching...Routing table for router 1123 done  |Start searching...Routing table for router 1124 done  |Start searching...Routing table for router 1125 done  |Start searching...Routing table for router 1126 done  |Start searching...Routing table for router 1127 done  |Start searching...Routing table for router 1128 done  |Start searching...Routing table for router 1129 done  |Start searching...Routing table for router 1130 done  |Start searching...Routing table for router 1131 done  |Start searching...Routing table for router 1132 done  |Start searching...Routing table for router 1133 done  |Start searching...Routing table for router 1134 done  |Start searching...Routing table for router 1135 done  |Start searching...Routing table for router 1136 done  |Start searching...Routing table for router 1137 done  |Start searching...Routing table for router 1138 done  |Start searching...Routing table for router 1139 done  |Start searching...Routing table for router 1140 done  |Start searching...Routing table for router 1141 done  |Start searching...Routing table for router 1142 done  |Start searching...Routing table for router 1143 done  |Start searching...Routing table for router 1144 done  |Start searching...Routing table for router 1145 done  |Start searching...Routing table for router 1146 done  |Start searching...Routing table for router 1147 done  |Start searching...Routing table for router 1148 done  |Start searching...Routing table for router 1149 done  |Start searching...Routing table for router 1150 done  |Start searching...Routing table for router 1151 done  |Start searching...Routing table for router 1152 done  |Start searching...Routing table for router 1153 done  |Start searching...Routing table for router 1154 done  |Start searching...Routing table for router 1155 done  |Start searching...Routing table for router 1156 done  |Start searching...Routing table for router 1157 done  |Start searching...Routing table for router 1158 done  |Start searching...Routing table for router 1159 done  |Start searching...Routing table for router 1160 done  |Start searching...Routing table for router 1161 done  |Start searching...Routing table for router 1162 done  |Start searching...Routing table for router 1163 done  |Start searching...Routing table for router 1164 done  |Start searching...Routing table for router 1165 done  |Start searching...Routing table for router 1166 done  |Start searching...Routing table for router 1167 done  |Start searching...Routing table for router 1168 done  |Start searching...Routing table for router 1169 done  |Start searching...Routing table for router 1170 done  |Start searching...Routing table for router 1171 done  |Start searching...Routing table for router 1172 done  |Start searching...Routing table for router 1173 done  |Start searching...Routing table for router 1174 done  |Start searching...Routing table for router 1175 done  |Start searching...Routing table for router 1176 done  |Start searching...Routing table for router 1177 done  |Start searching...Routing table for router 1178 done  |Start searching...Routing table for router 1179 done  |Start searching...Routing table for router 1180 done  |Start searching...Routing table for router 1181 done  |Start searching...Routing table for router 1182 done  |Start searching...Routing table for router 1183 done  |Start searching...Routing table for router 1184 done  |Start searching...Routing table for router 1185 done  |Start searching...Routing table for router 1186 done  |Start searching...Routing table for router 1187 done  |Start searching...Routing table for router 1188 done  |Start searching...Routing table for router 1189 done  |Start searching...Routing table for router 1190 done  |Start searching...Routing table for router 1191 done  |Start searching...Routing table for router 1192 done  |Start searching...Routing table for router 1193 done  |Start searching...Routing table for router 1194 done  |Start searching...Routing table for router 1195 done  |Start searching...Routing table for router 1196 done  |Start searching...Routing table for router 1197 done  |Start searching...Routing table for router 1198 done  |Start searching...Routing table for router 1199 done  |Start searching...Routing table for router 1200 done  |Start searching...Routing table for router 1201 done  |Start searching...Routing table for router 1202 done  |Start searching...Routing table for router 1203 done  |Start searching...Routing table for router 1204 done  |Start searching...Routing table for router 1205 done  |Start searching...Routing table for router 1206 done  |Start searching...Routing table for router 1207 done  |Start searching...Routing table for router 1208 done  |Start searching...Routing table for router 1209 done  |Start searching...Routing table for router 1210 done  |Start searching...Routing table for router 1211 done  |Start searching...Routing table for router 1212 done  |Start searching...Routing table for router 1213 done  |Start searching...Routing table for router 1214 done  |Start searching...Routing table for router 1215 done  |Start searching...Routing table for router 1216 done  |Start searching...Routing table for router 1217 done  |Start searching...Routing table for router 1218 done  |Start searching...Routing table for router 1219 done  |Start searching...Routing table for router 1220 done  |Start searching...Routing table for router 1221 done  |Start searching...Routing table for router 1222 done  |Start searching...Routing table for router 1223 done  |Start searching...Routing table for router 1224 done  |Start searching...Routing table for router 1225 done  |Start searching...Routing table for router 1226 done  |Start searching...Routing table for router 1227 done  |Start searching...Routing table for router 1228 done  |Start searching...Routing table for router 1229 done  |Start searching...Routing table for router 1230 done  |Start searching...Routing table for router 1231 done  |Start searching...Routing table for router 1232 done  |Start searching...Routing table for router 1233 done  |Start searching...Routing table for router 1234 done  |Start searching...Routing table for router 1235 done  |Start searching...Routing table for router 1236 done  |Start searching...Routing table for router 1237 done  |Start searching...Routing table for router 1238 done  |Start searching...Routing table for router 1239 done  |Start searching...Routing table for router 1240 done  |Start searching...Routing table for router 1241 done  |Start searching...Routing table for router 1242 done  |Start searching...Routing table for router 1243 done  |Start searching...Routing table for router 1244 done  |Start searching...Routing table for router 1245 done  |Start searching...Routing table for router 1246 done  |Start searching...Routing table for router 1247 done  |Start searching...Routing table for router 1248 done  |Start searching...Routing table for router 1249 done  |Start searching...Routing table for router 1250 done  |Start searching...Routing table for router 1251 done  |Start searching...Routing table for router 1252 done  |Start searching...Routing table for router 1253 done  |Start searching...Routing table for router 1254 done  |Start searching...Routing table for router 1255 done  |Start searching...Routing table for router 1256 done  |Start searching...Routing table for router 1257 done  |Start searching...Routing table for router 1258 done  |Start searching...Routing table for router 1259 done  |Start searching...Routing table for router 1260 done  |Start searching...Routing table for router 1261 done  |Start searching...Routing table for router 1262 done  |Start searching...Routing table for router 1263 done  |Start searching...Routing table for router 1264 done  |Start searching...Routing table for router 1265 done  |Start searching...Routing table for router 1266 done  |Start searching...Routing table for router 1267 done  |Start searching...Routing table for router 1268 done  |Start searching...Routing table for router 1269 done  |Start searching...Routing table for router 1270 done  |Start searching...Routing table for router 1271 done  |Start searching...Routing table for router 1272 done  |Start searching...Routing table for router 1273 done  |Start searching...Routing table for router 1274 done  |Start searching...Routing table for router 1275 done  |Start searching...Routing table for router 1276 done  |Start searching...Routing table for router 1277 done  |Start searching...Routing table for router 1278 done  |Start searching...Routing table for router 1279 done  |Start searching...Routing table for router 1280 done  |Start searching...Routing table for router 1281 done  |Start searching...Routing table for router 1282 done  |Start searching...Routing table for router 1283 done  |Start searching...Routing table for router 1284 done  |Start searching...Routing table for router 1285 done  |Start searching...Routing table for router 1286 done  |Start searching...Routing table for router 1287 done  |Start searching...Routing table for router 1288 done  |Start searching...Routing table for router 1289 done  |Start searching...Routing table for router 1290 done  |Start searching...Routing table for router 1291 done  |Start searching...Routing table for router 1292 done  |Start searching...Routing table for router 1293 done  |Start searching...Routing table for router 1294 done  |Start searching...Routing table for router 1295 done  |Start searching...Routing table for router 1296 done  |Start searching...Routing table for router 1297 done  |Start searching...Routing table for router 1298 done  |Start searching...Routing table for router 1299 done  |Start searching...Routing table for router 1300 done  |Start searching...Routing table for router 1301 done  |Start searching...Routing table for router 1302 done  |Start searching...Routing table for router 1303 done  |Start searching...Routing table for router 1304 done  |Start searching...Routing table for router 1305 done  |Start searching...Routing table for router 1306 done  |Start searching...Routing table for router 1307 done  |Start searching...Routing table for router 1308 done  |Start searching...Routing table for router 1309 done  |Start searching...Routing table for router 1310 done  |Start searching...Routing table for router 1311 done  |Start searching...Routing table for router 1312 done  |Start searching...Routing table for router 1313 done  |Start searching...Routing table for router 1314 done  |Start searching...Routing table for router 1315 done  |Start searching...Routing table for router 1316 done  |Start searching...Routing table for router 1317 done  |Start searching...Routing table for router 1318 done  |Start searching...Routing table for router 1319 done  |Start searching...Routing table for router 1320 done  |Start searching...Routing table for router 1321 done  |Start searching...Routing table for router 1322 done  |Start searching...Routing table for router 1323 done  |Start searching...Routing table for router 1324 done  |Start searching...Routing table for router 1325 done  |Start searching...Routing table for router 1326 done  |Start searching...Routing table for router 1327 done  |Start searching...Routing table for router 1328 done  |Start searching...Routing table for router 1329 done  |Start searching...Routing table for router 1330 done  |Start searching...Routing table for router 1331 done  |Start searching...Routing table for router 1332 done  |Start searching...Routing table for router 1333 done  |Start searching...Routing table for router 1334 done  |Start searching...Routing table for router 1335 done  |Start searching...Routing table for router 1336 done  |Start searching...Routing table for router 1337 done  |Start searching...Routing table for router 1338 done  |Start searching...Routing table for router 1339 done  |Start searching...Routing table for router 1340 done  |Start searching...Routing table for router 1341 done  |Start searching...Routing table for router 1342 done  |Start searching...Routing table for router 1343 done  |Start searching...Routing table for router 1344 done  |Start searching...Routing table for router 1345 done  |Start searching...Routing table for router 1346 done  |Start searching...Routing table for router 1347 done  |Start searching...Routing table for router 1348 done  |Start searching...Routing table for router 1349 done  |Start searching...Routing table for router 1350 done  |Start searching...Routing table for router 1351 done  |Start searching...Routing table for router 1352 done  |Start searching...Routing table for router 1353 done  |Start searching...Routing table for router 1354 done  |Start searching...Routing table for router 1355 done  |Start searching...Routing table for router 1356 done  |Start searching...Routing table for router 1357 done  |Start searching...Routing table for router 1358 done  |Start searching...Routing table for router 1359 done  |Start searching...Routing table for router 1360 done  |Start searching...Routing table for router 1361 done  |Start searching...Routing table for router 1362 done  |Start searching...Routing table for router 1363 done  |Start searching...Routing table for router 1364 done  |Start searching...Routing table for router 1365 done  |Start searching...Routing table for router 1366 done  |Start searching...Routing table for router 1367 done  |Start searching...Routing table for router 1368 done  |Start searching...Routing table for router 1369 done  |Start searching...Routing table for router 1370 done  |Start searching...Routing table for router 1371 done  |Start searching...Routing table for router 1372 done  |Start searching...Routing table for router 1373 done  |Start searching...Routing table for router 1374 done  |Start searching...Routing table for router 1375 done  |Start searching...Routing table for router 1376 done  |Start searching...Routing table for router 1377 done  |Start searching...Routing table for router 1378 done  |Start searching...Routing table for router 1379 done  |Start searching...Routing table for router 1380 done  |Start searching...Routing table for router 1381 done  |Start searching...Routing table for router 1382 done  |Start searching...Routing table for router 1383 done  |Sta
[...]
outing table for router 1841 done  |Start searching...Routing table for router 1842 done  |Start searching...Routing table for router 1843 done  |Start searching...Routing table for router 1844 done  |Start searching...Routing table for router 1845 done  |Start searching...Routing table for router 1846 done  |Start searching...Routing table for router 1847 done  |Start searching...Routing table for router 1848 done  |Start searching...Routing table for router 1849 done  |Start searching...Routing table for router 1850 done  |Start searching...Routing table for router 1851 done  |Start searching...Routing table for router 1852 done  |Start searching...Routing table for router 1853 done  |Start searching...Routing table for router 1854 done  |Start searching...Routing table for router 1855 done  |Start searching...Routing table for router 1856 done  |Start searching...Routing table for router 1857 done  |Start searching...Routing table for router 1858 done  |Start searching...Routing table for router 1859 done  |Start searching...Routing table for router 1860 done  |Start searching...Routing table for router 1861 done  |Start searching...Routing table for router 1862 done  |Start searching...Routing table for router 1863 done  |Start searching...Routing table for router 1864 done  |Start searching...Routing table for router 1865 done  |Start searching...Routing table for router 1866 done  |Start searching...Routing table for router 1867 done  |Start searching...Routing table for router 1868 done  |Start searching...Routing table for router 1869 done  |Start searching...Routing table for router 1870 done  |Start searching...Routing table for router 1871 done  |Start searching...Routing table for router 1872 done  |Start searching...Routing table for router 1873 done  |Start searching...Routing table for router 1874 done  |Start searching...Routing table for router 1875 done  |Start searching...Routing table for router 1876 done  |Start searching...Routing table for router 1877 done  |Start searching...Routing table for router 1878 done  |Start searching...Routing table for router 1879 done  |Start searching...Routing table for router 1880 done  |Start searching...Routing table for router 1881 done  |Start searching...Routing table for router 1882 done  |Start searching...Routing table for router 1883 done  |Start searching...Routing table for router 1884 done  |Start searching...Routing table for router 1885 done  |Start searching...Routing table for router 1886 done  |Start searching...Routing table for router 1887 done  |Start searching...Routing table for router 1888 done  |Start searching...Routing table for router 1889 done  |Start searching...Routing table for router 1890 done  |Start searching...Routing table for router 1891 done  |Start searching...Routing table for router 1892 done  |Start searching...Routing table for router 1893 done  |Start searching...Routing table for router 1894 done  |Start searching...Routing table for router 1895 done  |Start searching...Routing table for router 1896 done  |Start searching...Routing table for router 1897 done  |Start searching...Routing table for router 1898 done  |Start searching...Routing table for router 1899 done  |Start searching...Routing table for router 1900 done  |Start searching...Routing table for router 1901 done  |Start searching...Routing table for router 1902 done  |Start searching...Routing table for router 1903 done  |Start searching...Routing table for router 1904 done  |Start searching...Routing table for router 1905 done  |Start searching...Routing table for router 1906 done  |Start searching...Routing table for router 1907 done  |Start searching...Routing table for router 1908 done  |Start searching...Routing table for router 1909 done  |Start searching...Routing table for router 1910 done  |Start searching...Routing table for router 1911 done  |Start searching...Routing table for router 1912 done  |Start searching...Routing table for router 1913 done  |Start searching...Routing table for router 1914 done  |Start searching...Routing table for router 1915 done  |Start searching...Routing table for router 1916 done  |Start searching...Routing table for router 1917 done  |Start searching...Routing table for router 1918 done  |Start searching...Routing table for router 1919 done  |Start searching...Routing table for router 1920 done  |Start searching...Routing table for router 1921 done  |Start searching...Routing table for router 1922 done  |Start searching...Routing table for router 1923 done  |Start searching...Routing table for router 1924 done  |Start searching...Routing table for router 1925 done  |Start searching...Routing table for router 1926 done  |Start searching...Routing table for router 1927 done  |Start searching...Routing table for router 1928 done  |Start searching...Routing table for router 1929 done  |Start searching...Routing table for router 1930 done  |Start searching...Routing table for router 1931 done  |Start searching...Routing table for router 1932 done  |Start searching...Routing table for router 1933 done  |Start searching...Routing table for router 1934 done  |Start searching...Routing table for router 1935 done  |Start searching...Routing table for router 1936 done  |Start searching...Routing table for router 1937 done  |Start searching...Routing table for router 1938 done  |Start searching...Routing table for router 1939 done  |Start searching...Routing table for router 1940 done  |Start searching...Routing table for router 1941 done  |Start searching...Routing table for router 1942 done  |Start searching...Routing table for router 1943 done  |Start searching...Routing table for router 1944 done  |Start searching...Routing table for router 1945 done  |Start searching...Routing table for router 1946 done  |Start searching...Routing table for router 1947 done  |Start searching...Routing table for router 1948 done  |Start searching...Routing table for router 1949 done  |Start searching...Routing table for router 1950 done  |Start searching...Routing table for router 1951 done  |Start searching...Routing table for router 1952 done  |Start searching...Routing table for router 1953 done  |Start searching...Routing table for router 1954 done  |Start searching...Routing table for router 1955 done  |Start searching...Routing table for router 1956 done  |Start searching...Routing table for router 1957 done  |Start searching...Routing table for router 1958 done  |Start searching...Routing table for router 1959 done  |Start searching...Routing table for router 1960 done  |Start searching...Routing table for router 1961 done  |Start searching...Routing table for router 1962 done  |Start searching...Routing table for router 1963 done  |Start searching...Routing table for router 1964 done  |Start searching...Routing table for router 1965 done  |Start searching...Routing table for router 1966 done  |Start searching...Routing table for router 1967 done  |Start searching...Routing table for router 1968 done  |Start searching...Routing table for router 1969 done  |Start searching...Routing table for router 1970 done  |Start searching...Routing table for router 1971 done  |Start searching...Routing table for router 1972 done  |Start searching...Routing table for router 1973 done  |Start searching...Routing table for router 1974 done  |Start searching...Routing table for router 1975 done  |Start searching...Routing table for router 1976 done  |Start searching...Routing table for router 1977 done  |Start searching...Routing table for router 1978 done  |Start searching...Routing table for router 1979 done  |Start searching...Routing table for router 1980 done  |Start searching...Routing table for router 1981 done  |Start searching...Routing table for router 1982 done  |Start searching...Routing table for router 1983 done  |Start searching...Routing table for router 1984 done  |Start searching...Routing table for router 1985 done  |Start searching...Routing table for router 1986 done  |Start searching...Routing table for router 1987 done  |Start searching...Routing table for router 1988 done  |Start searching...Routing table for router 1989 done  |Start searching...Routing table for router 1990 done  |Start searching...Routing table for router 1991 done  |Start searching...Routing table for router 1992 done  |Start searching...Routing table for router 1993 done  |Start searching...Routing table for router 1994 done  |Start searching...Routing table for router 1995 done  |Start searching...Routing table for router 1996 done  |Start searching...Routing table for router 1997 done  |Start searching...Routing table for router 1998 done  |Start searching...Routing table for router 1999 done  |Start searching...Routing table for router 2000 done  |Start searching...Routing table for router 2001 done  |Start searching...Routing table for router 2002 done  |Start searching...Routing table for router 2003 done  |Start searching...Routing table for router 2004 done  |Start searching...Routing table for router 2005 done  |Start searching...Routing table for router 2006 done  |Start searching...Routing table for router 2007 done  |Start searching...Routing table for router 2008 done  |Start searching...Routing table for router 2009 done  |Start searching...Routing table for router 2010 done  |Start searching...Routing table for router 2011 done  |Start searching...Routing table for router 2012 done  |Start searching...Routing table for router 2013 done  |Start searching...Routing table for router 2014 done  |Start searching...Routing table for router 2015 done  |Start searching...Routing table for router 2016 done  |Start searching...Routing table for router 2017 done  |Start searching...Routing table for router 2018 done  |Start searching...Routing table for router 2019 done  |Start searching...Routing table for router 2020 done  |Start searching...Routing table for router 2021 done  |Start searching...Routing table for router 2022 done  |Start searching...Routing table for router 2023 done  |Start searching...Routing table for router 2024 done  |Start searching...Routing table for router 2025 done  |Start searching...Routing table for router 2026 done  |Start searching...Routing table for router 2027 done  |Start searching...Routing table for router 2028 done  |Start searching...Routing table for router 2029 done  |Start searching...Routing table for router 2030 done  |Start searching...Routing table for router 2031 done  |Start searching...Routing table for router 2032 done  |Start searching...Routing table for router 2033 done  |Start searching...Routing table for router 2034 done  |Start searching...Routing table for router 2035 done  |Start searching...Routing table for router 2036 done  |Start searching...Routing table for router 2037 done  |Start searching...Routing table for router 2038 done  |Start searching...Routing table for router 2039 done  |Start searching...Routing table for router 2040 done  |Start searching...Routing table for router 2041 done  |Start searching...Routing table for router 2042 done  |Start searching...Routing table for router 2043 done  |Start searching...Routing table for router 2044 done  |Start searching...Routing table for router 2045 done  |Start searching...Routing table for router 2046 done  |Start searching...Routing table for router 2047 done  |
========================== Build Routing table done  =====================

========================== Building Bad traffic pattern, type 2... ============================
=================== Finished building bad traffic pattern... ====================
Sum of nodes sending: 2048
Sum of nodes: 2048
0
Class 0:
Minimum packet latency = 5
Average packet latency = 21.4516
Maximum packet latency = 40
Minimum network latency = 5
Average network latency = 21.4516
Maximum network latency = 40
Slowest packet = 7940
Minimum flit latency = 5
Average flit latency = 21.4516
Maximum flit latency = 40
Slowest flit = 7940
Minimum fragmentation = 0
Average fragmentation = 0
Maximum fragmentation = 0
Minimum injected packet rate = 0 (at node 83)
Average injected packet rate = 0.00991211
Maximum injected packet rate = 0.03 (at node 702)
Minimum accepted packet rate = 0 (at node 52)
Average accepted packet rate = 0.0095
Maximum accepted packet rate = 0.026 (at node 1139)
Minimum injected flit rate = 0 (at node 83)
Average injected flit rate = 0.00991211
Maximum injected flit rate = 0.03 (at node 702)
Minimum accepted flit rate = 0 (at node 52)
Average accepted flit rate = 0.0095
Maximum accepted flit rate = 0.026 (at node 1139)
Average injected packet length = 1
Average accepted packet length = 1
Total in-flight flits = 422 (0 measured)
latency change    = 1
throughput change = 1
0
Class 0:
Minimum packet latency = 5
Average packet latency = 21.4774
Maximum packet latency = 42
Minimum network latency = 5
Average network latency = 21.4774
Maximum network latency = 42
Slowest packet = 12277
Minimum flit latency = 5
Average flit latency = 21.4774
Maximum flit latency = 42
Slowest flit = 12277
Minimum fragmentation = 0
Average fragmentation = 0
Maximum fragmentation = 0
Minimum injected packet rate = 0.001 (at node 279)
Average injected packet rate = 0.00998486
Maximum injected packet rate = 0.021 (at node 883)
Minimum accepted packet rate = 0.001 (at node 1630)
Average accepted packet rate = 0.00976221
Maximum accepted packet rate = 0.02 (at node 407)
Minimum injected flit rate = 0.001 (at node 279)
Average injected flit rate = 0.00998486
Maximum injected flit rate = 0.021 (at node 883)
Minimum accepted flit rate = 0.001 (at node 1630)
Average accepted flit rate = 0.00976221
Maximum accepted flit rate = 0.02 (at node 407)
Average injected packet length = 1
Average accepted packet length = 1
Total in-flight flits = 456 (0 measured)
latency change    = 0.00120052
throughput change = 0.0268594
0
Class 0:
Minimum packet latency = 5
Average packet latency = 21.568
Maximum packet latency = 38
Minimum network latency = 5
Average network latency = 21.568
Maximum network latency = 38
Slowest packet = 20023
Minimum flit latency = 5
Average flit latency = 21.568
Maximum flit latency = 38
Slowest flit = 20023
Minimum fragmentation = 0
Average fragmentation = 0
Maximum fragmentation = 0
Minimum injected packet rate = 0 (at node 60)
Average injected packet rate = 0.0100986
Maximum injected packet rate = 0.028 (at node 678)
Minimum accepted packet rate = 0 (at node 50)
Average accepted packet rate = 0.0101299
Maximum accepted packet rate = 0.028 (at node 61)
Minimum injected flit rate = 0 (at node 60)
Average injected flit rate = 0.0100986
Maximum injected flit rate = 0.028 (at node 678)
Minimum accepted flit rate = 0 (at node 50)
Average accepted flit rate = 0.0101299
Maximum accepted flit rate = 0.028 (at node 61)
Average injected packet length = 1
Average accepted packet length = 1
Total in-flight flits = 424 (0 measured)
latency change    = 0.0042028
throughput change = 0.0362962
Warmed up ...Time used is 1500 cycles
1
Class 0:
Minimum packet latency = 5
Average packet latency = 21.5118
Maximum packet latency = 39
Minimum network latency = 5
Average network latency = 21.5118
Maximum network latency = 39
Slowest packet = 37325
Minimum flit latency = 5
Average flit latency = 21.5776
Maximum flit latency = 39
Slowest flit = 37325
Minimum fragmentation = 0
Average fragmentation = 0
Maximum fragmentation = 0
Minimum injected packet rate = 0 (at node 447)
Average injected packet rate = 0.00999121
Maximum injected packet rate = 0.026 (at node 1439)
Minimum accepted packet rate = 0 (at node 52)
Average accepted packet rate = 0.00997656
Maximum accepted packet rate = 0.03 (at node 73)
Minimum injected flit rate = 0 (at node 447)
Average injected flit rate = 0.00999121
Maximum injected flit rate = 0.026 (at node 1439)
Minimum accepted flit rate = 0 (at node 52)
Average accepted flit rate = 0.00997656
Maximum accepted flit rate = 0.03 (at node 73)
Average injected packet length = 1
Average accepted packet length = 1
Total in-flight flits = 439 (439 measured)
latency change    = 0.00261097
throughput change = 0.0153681
1
Class 0:
Minimum packet latency = 5
Average packet latency = 21.5414
Maximum packet latency = 39
Minimum network latency = 5
Average network latency = 21.5414
Maximum network latency = 39
Slowest packet = 37325
Minimum flit latency = 5
Average flit latency = 21.5736
Maximum flit latency = 39
Slowest flit = 37325
Minimum fragmentation = 0
Average fragmentation = 0
Maximum fragmentation = 0
Minimum injected packet rate = 0.001 (at node 447)
Average injected packet rate = 0.00999951
Maximum injected packet rate = 0.025 (at node 1226)
Minimum accepted packet rate = 0.001 (at node 284)
Average accepted packet rate = 0.00999658
Maximum accepted packet rate = 0.024 (at node 1084)
Minimum injected flit rate = 0.001 (at node 447)
Average injected flit rate = 0.00999951
Maximum injected flit rate = 0.025 (at node 1226)
Minimum accepted flit rate = 0.001 (at node 284)
Average accepted flit rate = 0.00999658
Maximum accepted flit rate = 0.024 (at node 1084)
Average injected packet length = 1
Average accepted packet length = 1
Total in-flight flits = 430 (430 measured)
latency change    = 0.00137072
throughput change = 0.00200264
1
Class 0:
Minimum packet latency = 5
Average packet latency = 21.5342
Maximum packet latency = 39
Minimum network latency = 5
Average network latency = 21.5342
Maximum network latency = 39
Slowest packet = 37325
Minimum flit latency = 5
Average flit latency = 21.5558
Maximum flit latency = 39
Slowest flit = 37325
Minimum fragmentation = 0
Average fragmentation = 0
Maximum fragmentation = 0
Minimum injected packet rate = 0.002 (at node 1794)
Average injected packet rate = 0.00998177
Maximum injected packet rate = 0.0213333 (at node 1770)
Minimum accepted packet rate = 0.002 (at node 1723)
Average accepted packet rate = 0.00998991
Maximum accepted packet rate = 0.0213333 (at node 72)
Minimum injected flit rate = 0.002 (at node 1794)
Average injected flit rate = 0.00998177
Maximum injected flit rate = 0.0213333 (at node 1770)
Minimum accepted flit rate = 0.002 (at node 1723)
Average accepted flit rate = 0.00998991
Maximum accepted flit rate = 0.0213333 (at node 72)
Average injected packet length = 1
Average accepted packet length = 1
Total in-flight flits = 399 (399 measured)
latency change    = 0.000330922
throughput change = 0.000667992
Draining all recorded packets ...
Draining remaining packets ...
Time taken is 3065 cycles
====== Traffic class 0 ======
Overall minimum packet latency = 5 (1 samples)
Overall average packet latency = 21.547 (1 samples)
Overall maximum packet latency = 39 (1 samples)
Overall minimum network latency = 5 (1 samples)
Overall average network latency = 21.547 (1 samples)
Overall maximum network latency = 39 (1 samples)
Overall minimum flit latency = 5 (1 samples)
Overall average flit latency = 21.5735 (1 samples)
Overall maximum flit latency = 39 (1 samples)
Overall minimum fragmentation = 0 (1 samples)
Overall average fragmentation = 0 (1 samples)
Overall maximum fragmentation = 0 (1 samples)
Overall minimum injected packet rate = 0.002 (1 samples)
Overall average injected packet rate = 0.00998177 (1 samples)
Overall maximum injected packet rate = 0.0213333 (1 samples)
Overall minimum accepted packet rate = 0.002 (1 samples)
Overall average accepted packet rate = 0.00998991 (1 samples)
Overall maximum accepted packet rate = 0.0213333 (1 samples)
Overall minimum injected flit rate = 0.002 (1 samples)
Overall average injected flit rate = 0.00998177 (1 samples)
Overall maximum injected flit rate = 0.0213333 (1 samples)
Overall minimum accepted flit rate = 0.002 (1 samples)
Overall average accepted flit rate = 0.00998991 (1 samples)
Overall maximum accepted flit rate = 0.0213333 (1 samples)
Overall average injected packet size = 1 (1 samples)
Overall average accepted packet size = 1 (1 samples)
Overall average hops = 6.49974 (1 samples)
Total run time 67.8562
