BEGIN Configuration File: ./T5D
injection_rate = 0.2;
traffic = uniform;
use_size_power_of_two = no;
routing_function = dim_order;
vc_buf_size = 16;
topology = torus;
use_noc_latency = 0;
hold_switch_for_packet=0;

k = 14;
n = 2;

packet_size  = 1;
num_vcs      = 14;
vc_allocator = separable_input_first; 
sw_allocator = separable_input_first;

alloc_iters   = 1;
sample_period = 500;

wait_for_tail_credit = 0;
use_read_write       = 0;

credit_delay   = 2;
routing_delay  = 0;
vc_alloc_delay = 1;
sw_alloc_delay = 1;
st_final_delay = 1;

input_speedup     = 1;
output_speedup    = 1;
internal_speedup  = 2.0;

warmup_periods = 3;
sim_count      = 1;

priority = none;
injection_rate_uses_flits=1;

END Configuration File: ./T5D
Number of nodes: 196
Number of routers: 196
0
Class 0:
Minimum packet latency = 5
Average packet latency = 26.6602
Maximum packet latency = 54
Minimum network latency = 5
Average network latency = 26.6602
Maximum network latency = 54
Slowest packet = 17102
Minimum flit latency = 5
Average flit latency = 26.6602
Maximum flit latency = 54
Slowest flit = 17102
Minimum fragmentation = 0
Average fragmentation = 0
Maximum fragmentation = 0
Minimum injected packet rate = 0.156 (at node 68)
Average injected packet rate = 0.198255
Maximum injected packet rate = 0.24 (at node 164)
Minimum accepted packet rate = 0.142 (at node 153)
Average accepted packet rate = 0.186582
Maximum accepted packet rate = 0.234 (at node 43)
Minimum injected flit rate = 0.156 (at node 68)
Average injected flit rate = 0.198255
Maximum injected flit rate = 0.24 (at node 164)
Minimum accepted flit rate = 0.142 (at node 153)
Average accepted flit rate = 0.186582
Maximum accepted flit rate = 0.234 (at node 43)
Average injected packet length = 1
Average accepted packet length = 1
Total in-flight flits = 1144 (0 measured)
latency change    = 1
throughput change = 1
0
Class 0:
Minimum packet latency = 5
Average packet latency = 26.7839
Maximum packet latency = 55
Minimum network latency = 5
Average network latency = 26.7839
Maximum network latency = 55
Slowest packet = 21782
Minimum flit latency = 5
Average flit latency = 26.7839
Maximum flit latency = 55
Slowest flit = 21782
Minimum fragmentation = 0
Average fragmentation = 0
Maximum fragmentation = 0
Minimum injected packet rate = 0.171 (at node 1)
Average injected packet rate = 0.198429
Maximum injected packet rate = 0.235 (at node 50)
Minimum accepted packet rate = 0.148 (at node 189)
Average accepted packet rate = 0.193117
Maximum accepted packet rate = 0.238 (at node 149)
Minimum injected flit rate = 0.171 (at node 1)
Average injected flit rate = 0.198429
Maximum injected flit rate = 0.235 (at node 50)
Minimum accepted flit rate = 0.148 (at node 189)
Average accepted flit rate = 0.193117
Maximum accepted flit rate = 0.238 (at node 149)
Average injected packet length = 1
Average accepted packet length = 1
Total in-flight flits = 1041 (0 measured)
latency change    = 0.00461756
throughput change = 0.0338432
0
Class 0:
Minimum packet latency = 5
Average packet latency = 26.9878
Maximum packet latency = 55
Minimum network latency = 5
Average network latency = 26.9878
Maximum network latency = 55
Slowest packet = 52097
Minimum flit latency = 5
Average flit latency = 26.9878
Maximum flit latency = 55
Slowest flit = 52097
Minimum fragmentation = 0
Average fragmentation = 0
Maximum fragmentation = 0
Minimum injected packet rate = 0.152 (at node 169)
Average injected packet rate = 0.200276
Maximum injected packet rate = 0.25 (at node 106)
Minimum accepted packet rate = 0.15 (at node 133)
Average accepted packet rate = 0.200449
Maximum accepted packet rate = 0.264 (at node 5)
Minimum injected flit rate = 0.152 (at node 169)
Average injected flit rate = 0.200276
Maximum injected flit rate = 0.25 (at node 106)
Minimum accepted flit rate = 0.15 (at node 133)
Average accepted flit rate = 0.200449
Maximum accepted flit rate = 0.264 (at node 5)
Average injected packet length = 1
Average accepted packet length = 1
Total in-flight flits = 1024 (0 measured)
latency change    = 0.00755501
throughput change = 0.0365761
Warmed up ...Time used is 1500 cycles
1
Class 0:
Minimum packet latency = 5
Average packet latency = 26.8221
Maximum packet latency = 57
Minimum network latency = 5
Average network latency = 26.8221
Maximum network latency = 57
Slowest packet = 65662
Minimum flit latency = 5
Average flit latency = 26.9879
Maximum flit latency = 57
Slowest flit = 65662
Minimum fragmentation = 0
Average fragmentation = 0
Maximum fragmentation = 0
Minimum injected packet rate = 0.16 (at node 63)
Average injected packet rate = 0.200408
Maximum injected packet rate = 0.248 (at node 123)
Minimum accepted packet rate = 0.148 (at node 145)
Average accepted packet rate = 0.199816
Maximum accepted packet rate = 0.252 (at node 31)
Minimum injected flit rate = 0.16 (at node 63)
Average injected flit rate = 0.200408
Maximum injected flit rate = 0.248 (at node 123)
Minimum accepted flit rate = 0.148 (at node 145)
Average accepted flit rate = 0.199816
Maximum accepted flit rate = 0.252 (at node 31)
Average injected packet length = 1
Average accepted packet length = 1
Total in-flight flits = 1082 (1082 measured)
latency change    = 0.00617614
throughput change = 0.00316617
1
Class 0:
Minimum packet latency = 5
Average packet latency = 26.8372
Maximum packet latency = 57
Minimum network latency = 5
Average network latency = 26.8372
Maximum network latency = 57
Slowest packet = 65662
Minimum flit latency = 5
Average flit latency = 26.9199
Maximum flit latency = 57
Slowest flit = 65662
Minimum fragmentation = 0
Average fragmentation = 0
Maximum fragmentation = 0
Minimum injected packet rate = 0.17 (at node 48)
Average injected packet rate = 0.19974
Maximum injected packet rate = 0.238 (at node 136)
Minimum accepted packet rate = 0.166 (at node 49)
Average accepted packet rate = 0.199367
Maximum accepted packet rate = 0.237 (at node 91)
Minimum injected flit rate = 0.17 (at node 48)
Average injected flit rate = 0.19974
Maximum injected flit rate = 0.238 (at node 136)
Minimum accepted flit rate = 0.166 (at node 49)
Average accepted flit rate = 0.199367
Maximum accepted flit rate = 0.237 (at node 91)
Average injected packet length = 1
Average accepted packet length = 1
Total in-flight flits = 1097 (1097 measured)
latency change    = 0.00056158
throughput change = 0.00225202
1
Class 0:
Minimum packet latency = 5
Average packet latency = 26.8644
Maximum packet latency = 57
Minimum network latency = 5
Average network latency = 26.8644
Maximum network latency = 57
Slowest packet = 65662
Minimum flit latency = 5
Average flit latency = 26.9188
Maximum flit latency = 57
Slowest flit = 65662
Minimum fragmentation = 0
Average fragmentation = 0
Maximum fragmentation = 0
Minimum injected packet rate = 0.176 (at node 63)
Average injected packet rate = 0.20031
Maximum injected packet rate = 0.23 (at node 37)
Minimum accepted packet rate = 0.172667 (at node 10)
Average accepted packet rate = 0.20019
Maximum accepted packet rate = 0.230667 (at node 9)
Minimum injected flit rate = 0.176 (at node 63)
Average injected flit rate = 0.20031
Maximum injected flit rate = 0.23 (at node 37)
Minimum accepted flit rate = 0.172667 (at node 10)
Average accepted flit rate = 0.20019
Maximum accepted flit rate = 0.230667 (at node 9)
Average injected packet length = 1
Average accepted packet length = 1
Total in-flight flits = 1059 (1059 measured)
latency change    = 0.00101135
throughput change = 0.00411173
Draining all recorded packets ...
Draining remaining packets ...
Time taken is 3095 cycles
====== Traffic class 0 ======
Overall minimum packet latency = 5 (1 samples)
Overall average packet latency = 26.9222 (1 samples)
Overall maximum packet latency = 57 (1 samples)
Overall minimum network latency = 5 (1 samples)
Overall average network latency = 26.9222 (1 samples)
Overall maximum network latency = 57 (1 samples)
Overall minimum flit latency = 5 (1 samples)
Overall average flit latency = 26.9746 (1 samples)
Overall maximum flit latency = 57 (1 samples)
Overall minimum fragmentation = 0 (1 samples)
Overall average fragmentation = 0 (1 samples)
Overall maximum fragmentation = 0 (1 samples)
Overall minimum injected packet rate = 0.176 (1 samples)
Overall average injected packet rate = 0.20031 (1 samples)
Overall maximum injected packet rate = 0.23 (1 samples)
Overall minimum accepted packet rate = 0.172667 (1 samples)
Overall average accepted packet rate = 0.20019 (1 samples)
Overall maximum accepted packet rate = 0.230667 (1 samples)
Overall minimum injected flit rate = 0.176 (1 samples)
Overall average injected flit rate = 0.20031 (1 samples)
Overall maximum injected flit rate = 0.23 (1 samples)
Overall minimum accepted flit rate = 0.172667 (1 samples)
Overall average accepted flit rate = 0.20019 (1 samples)
Overall maximum accepted flit rate = 0.230667 (1 samples)
Overall average injected packet size = 1 (1 samples)
Overall average accepted packet size = 1 (1 samples)
Overall average hops = 7.99441 (1 samples)
Total run time 22.9637
