BEGIN Configuration File: ./DF.conf
injection_rate = 0.4;
traffic = bad_dragon;
use_size_power_of_two = no;
routing_function = ugal;
vc_buf_size = 16;
topology = dragonflynew;
//use_noc_latency = 0;
//hold_switch_for_packet=0;

k = 4;
n = 1;

packet_size  = 1;
num_vcs      = 3;
vc_allocator = separable_input_first; 
sw_allocator = separable_input_first;

alloc_iters   = 1;
sample_period = 500;

wait_for_tail_credit = 0;
use_read_write       = 0;

credit_delay   = 2;
routing_delay  = 0;
vc_alloc_delay = 1;
sw_alloc_delay = 1;
st_final_delay = 1;

input_speedup     = 1;
output_speedup    = 1;
internal_speedup  = 2.0;

warmup_periods = 3;
sim_count      = 1;

priority = none;
injection_rate_uses_flits=1;

END Configuration File: ./DF.conf
Number of nodes: 1056
Number of routers: 264
 Dragonfly 
 p = 4 n = 1
 each switch - total radix =  15
 # of switches = 264
 # of channels = 2904
 # of nodes ( size of network ) = 1056
 # of groups (_g) = 33
 # of routers per group (_a) = 8
Done links
0
Class 0:
Minimum packet latency = 8
Average packet latency = 30.3719
Maximum packet latency = 73
Minimum network latency = 8
Average network latency = 30.3719
Maximum network latency = 73
Slowest packet = 103414
Minimum flit latency = 8
Average flit latency = 30.3719
Maximum flit latency = 73
Slowest flit = 103414
Minimum fragmentation = 0
Average fragmentation = 0
Maximum fragmentation = 0
Minimum injected packet rate = 0.332 (at node 296)
Average injected packet rate = 0.399625
Maximum injected packet rate = 0.468 (at node 359)
Minimum accepted packet rate = 0.292 (at node 26)
Average accepted packet rate = 0.37461
Maximum accepted packet rate = 0.484 (at node 597)
Minimum injected flit rate = 0.332 (at node 296)
Average injected flit rate = 0.399625
Maximum injected flit rate = 0.468 (at node 359)
Minimum accepted flit rate = 0.292 (at node 26)
Average accepted flit rate = 0.37461
Maximum accepted flit rate = 0.484 (at node 597)
Average injected packet length = 1
Average accepted packet length = 1
Total in-flight flits = 13208 (0 measured)
latency change    = 1
throughput change = 1
0
Class 0:
Minimum packet latency = 8
Average packet latency = 30.7991
Maximum packet latency = 80
Minimum network latency = 8
Average network latency = 30.7991
Maximum network latency = 80
Slowest packet = 191222
Minimum flit latency = 8
Average flit latency = 30.7991
Maximum flit latency = 80
Slowest flit = 191222
Minimum fragmentation = 0
Average fragmentation = 0
Maximum fragmentation = 0
Minimum injected packet rate = 0.346 (at node 425)
Average injected packet rate = 0.39972
Maximum injected packet rate = 0.447 (at node 736)
Minimum accepted packet rate = 0.318 (at node 632)
Average accepted packet rate = 0.387179
Maximum accepted packet rate = 0.442 (at node 956)
Minimum injected flit rate = 0.346 (at node 425)
Average injected flit rate = 0.39972
Maximum injected flit rate = 0.447 (at node 736)
Minimum accepted flit rate = 0.318 (at node 632)
Average accepted flit rate = 0.387179
Maximum accepted flit rate = 0.442 (at node 956)
Average injected packet length = 1
Average accepted packet length = 1
Total in-flight flits = 13243 (0 measured)
latency change    = 0.0138685
throughput change = 0.0324634
0
Class 0:
Minimum packet latency = 8
Average packet latency = 31.0508
Maximum packet latency = 80
Minimum network latency = 8
Average network latency = 31.0508
Maximum network latency = 80
Slowest packet = 586551
Minimum flit latency = 8
Average flit latency = 31.0508
Maximum flit latency = 80
Slowest flit = 586551
Minimum fragmentation = 0
Average fragmentation = 0
Maximum fragmentation = 0
Minimum injected packet rate = 0.318 (at node 376)
Average injected packet rate = 0.399023
Maximum injected packet rate = 0.474 (at node 60)
Minimum accepted packet rate = 0.312 (at node 989)
Average accepted packet rate = 0.399125
Maximum accepted packet rate = 0.48 (at node 879)
Minimum injected flit rate = 0.318 (at node 376)
Average injected flit rate = 0.399023
Maximum injected flit rate = 0.474 (at node 60)
Minimum accepted flit rate = 0.312 (at node 989)
Average accepted flit rate = 0.399125
Maximum accepted flit rate = 0.48 (at node 879)
Average injected packet length = 1
Average accepted packet length = 1
Total in-flight flits = 13189 (0 measured)
latency change    = 0.00810777
throughput change = 0.0299305
Warmed up ...Time used is 1500 cycles
1
Class 0:
Minimum packet latency = 8
Average packet latency = 31.0442
Maximum packet latency = 79
Minimum network latency = 8
Average network latency = 31.0442
Maximum network latency = 79
Slowest packet = 705643
Minimum flit latency = 8
Average flit latency = 31.1476
Maximum flit latency = 79
Slowest flit = 705643
Minimum fragmentation = 0
Average fragmentation = 0
Maximum fragmentation = 0
Minimum injected packet rate = 0.338 (at node 511)
Average injected packet rate = 0.400241
Maximum injected packet rate = 0.474 (at node 76)
Minimum accepted packet rate = 0.316 (at node 165)
Average accepted packet rate = 0.400583
Maximum accepted packet rate = 0.478 (at node 807)
Minimum injected flit rate = 0.338 (at node 511)
Average injected flit rate = 0.400241
Maximum injected flit rate = 0.474 (at node 76)
Minimum accepted flit rate = 0.316 (at node 165)
Average accepted flit rate = 0.400583
Maximum accepted flit rate = 0.478 (at node 807)
Average injected packet length = 1
Average accepted packet length = 1
Total in-flight flits = 13008 (13008 measured)
latency change    = 0.000211788
throughput change = 0.00364052
1
Class 0:
Minimum packet latency = 8
Average packet latency = 30.9756
Maximum packet latency = 79
Minimum network latency = 8
Average network latency = 30.9756
Maximum network latency = 79
Slowest packet = 705643
Minimum flit latency = 8
Average flit latency = 31.0295
Maximum flit latency = 79
Slowest flit = 705643
Minimum fragmentation = 0
Average fragmentation = 0
Maximum fragmentation = 0
Minimum injected packet rate = 0.351 (at node 817)
Average injected packet rate = 0.399595
Maximum injected packet rate = 0.446 (at node 740)
Minimum accepted packet rate = 0.338 (at node 366)
Average accepted packet rate = 0.399772
Maximum accepted packet rate = 0.466 (at node 972)
Minimum injected flit rate = 0.351 (at node 817)
Average injected flit rate = 0.399595
Maximum injected flit rate = 0.446 (at node 740)
Minimum accepted flit rate = 0.338 (at node 366)
Average accepted flit rate = 0.399772
Maximum accepted flit rate = 0.466 (at node 972)
Average injected packet length = 1
Average accepted packet length = 1
Total in-flight flits = 13002 (13002 measured)
latency change    = 0.00221719
throughput change = 0.00203004
1
Class 0:
Minimum packet latency = 8
Average packet latency = 31.0212
Maximum packet latency = 79
Minimum network latency = 8
Average network latency = 31.0212
Maximum network latency = 79
Slowest packet = 705643
Minimum flit latency = 8
Average flit latency = 31.0562
Maximum flit latency = 79
Slowest flit = 705643
Minimum fragmentation = 0
Average fragmentation = 0
Maximum fragmentation = 0
Minimum injected packet rate = 0.365333 (at node 577)
Average injected packet rate = 0.399328
Maximum injected packet rate = 0.438667 (at node 167)
Minimum accepted packet rate = 0.347333 (at node 587)
Average accepted packet rate = 0.399463
Maximum accepted packet rate = 0.45 (at node 967)
Minimum injected flit rate = 0.365333 (at node 577)
Average injected flit rate = 0.399328
Maximum injected flit rate = 0.438667 (at node 167)
Minimum accepted flit rate = 0.347333 (at node 587)
Average accepted flit rate = 0.399463
Maximum accepted flit rate = 0.45 (at node 967)
Average injected packet length = 1
Average accepted packet length = 1
Total in-flight flits = 12975 (12975 measured)
latency change    = 0.00147081
throughput change = 0.000773608
Draining all recorded packets ...
Draining remaining packets ...
Time taken is 3106 cycles
====== Traffic class 0 ======
Overall minimum packet latency = 8 (1 samples)
Overall average packet latency = 31.0515 (1 samples)
Overall maximum packet latency = 79 (1 samples)
Overall minimum network latency = 8 (1 samples)
Overall average network latency = 31.0515 (1 samples)
Overall maximum network latency = 79 (1 samples)
Overall minimum flit latency = 8 (1 samples)
Overall average flit latency = 31.0565 (1 samples)
Overall maximum flit latency = 79 (1 samples)
Overall minimum fragmentation = 0 (1 samples)
Overall average fragmentation = 0 (1 samples)
Overall maximum fragmentation = 0 (1 samples)
Overall minimum injected packet rate = 0.365333 (1 samples)
Overall average injected packet rate = 0.399328 (1 samples)
Overall maximum injected packet rate = 0.438667 (1 samples)
Overall minimum accepted packet rate = 0.347333 (1 samples)
Overall average accepted packet rate = 0.399463 (1 samples)
Overall maximum accepted packet rate = 0.45 (1 samples)
Overall minimum injected flit rate = 0.365333 (1 samples)
Overall average injected flit rate = 0.399328 (1 samples)
Overall maximum injected flit rate = 0.438667 (1 samples)
Overall minimum accepted flit rate = 0.347333 (1 samples)
Overall average accepted flit rate = 0.399463 (1 samples)
Overall maximum accepted flit rate = 0.45 (1 samples)
Overall average injected packet size = 1 (1 samples)
Overall average accepted packet size = 1 (1 samples)
Overall average hops = 6.35887 (1 samples)
Total run time 171.636
