BEGIN Configuration File: ./DF.conf
injection_rate = 0.01;
traffic = bad_dragon;
use_size_power_of_two = no;
routing_function = ugal;
vc_buf_size = 16;
topology = dragonflynew;
//use_noc_latency = 0;
//hold_switch_for_packet=0;

k = 4;
n = 1;

packet_size  = 1;
num_vcs      = 3;
vc_allocator = separable_input_first; 
sw_allocator = separable_input_first;

alloc_iters   = 1;
sample_period = 500;

wait_for_tail_credit = 0;
use_read_write       = 0;

credit_delay   = 2;
routing_delay  = 0;
vc_alloc_delay = 1;
sw_alloc_delay = 1;
st_final_delay = 1;

input_speedup     = 1;
output_speedup    = 1;
internal_speedup  = 2.0;

warmup_periods = 3;
sim_count      = 1;

priority = none;
injection_rate_uses_flits=1;

END Configuration File: ./DF.conf
Number of nodes: 1056
Number of routers: 264
 Dragonfly 
 p = 4 n = 1
 each switch - total radix =  15
 # of switches = 264
 # of channels = 2904
 # of nodes ( size of network ) = 1056
 # of groups (_g) = 33
 # of routers per group (_a) = 8
Done links
0
Class 0:
Minimum packet latency = 8
Average packet latency = 21.1122
Maximum packet latency = 25
Minimum network latency = 8
Average network latency = 21.1122
Maximum network latency = 25
Slowest packet = 531
Minimum flit latency = 8
Average flit latency = 21.1122
Maximum flit latency = 25
Slowest flit = 531
Minimum fragmentation = 0
Average fragmentation = 0
Maximum fragmentation = 0
Minimum injected packet rate = 0 (at node 21)
Average injected packet rate = 0.0099053
Maximum injected packet rate = 0.026 (at node 24)
Minimum accepted packet rate = 0 (at node 260)
Average accepted packet rate = 0.0094697
Maximum accepted packet rate = 0.028 (at node 321)
Minimum injected flit rate = 0 (at node 21)
Average injected flit rate = 0.0099053
Maximum injected flit rate = 0.026 (at node 24)
Minimum accepted flit rate = 0 (at node 260)
Average accepted flit rate = 0.0094697
Maximum accepted flit rate = 0.028 (at node 321)
Average injected packet length = 1
Average accepted packet length = 1
Total in-flight flits = 230 (0 measured)
latency change    = 1
throughput change = 1
0
Class 0:
Minimum packet latency = 8
Average packet latency = 21.1326
Maximum packet latency = 25
Minimum network latency = 8
Average network latency = 21.1326
Maximum network latency = 25
Slowest packet = 531
Minimum flit latency = 8
Average flit latency = 21.1326
Maximum flit latency = 25
Slowest flit = 531
Minimum fragmentation = 0
Average fragmentation = 0
Maximum fragmentation = 0
Minimum injected packet rate = 0.001 (at node 398)
Average injected packet rate = 0.00990341
Maximum injected packet rate = 0.021 (at node 301)
Minimum accepted packet rate = 0.002 (at node 41)
Average accepted packet rate = 0.00970265
Maximum accepted packet rate = 0.02 (at node 722)
Minimum injected flit rate = 0.001 (at node 398)
Average injected flit rate = 0.00990341
Maximum injected flit rate = 0.021 (at node 301)
Minimum accepted flit rate = 0.002 (at node 41)
Average accepted flit rate = 0.00970265
Maximum accepted flit rate = 0.02 (at node 722)
Average injected packet length = 1
Average accepted packet length = 1
Total in-flight flits = 212 (0 measured)
latency change    = 0.000967088
throughput change = 0.0240094
0
Class 0:
Minimum packet latency = 8
Average packet latency = 21.0868
Maximum packet latency = 26
Minimum network latency = 8
Average network latency = 21.0868
Maximum network latency = 26
Slowest packet = 13169
Minimum flit latency = 8
Average flit latency = 21.0868
Maximum flit latency = 26
Slowest flit = 13169
Minimum fragmentation = 0
Average fragmentation = 0
Maximum fragmentation = 0
Minimum injected packet rate = 0 (at node 33)
Average injected packet rate = 0.00995455
Maximum injected packet rate = 0.026 (at node 336)
Minimum accepted packet rate = 0 (at node 228)
Average accepted packet rate = 0.00997538
Maximum accepted packet rate = 0.028 (at node 469)
Minimum injected flit rate = 0 (at node 33)
Average injected flit rate = 0.00995455
Maximum injected flit rate = 0.026 (at node 336)
Minimum accepted flit rate = 0 (at node 228)
Average accepted flit rate = 0.00997538
Maximum accepted flit rate = 0.028 (at node 469)
Average injected packet length = 1
Average accepted packet length = 1
Total in-flight flits = 201 (0 measured)
latency change    = 0.00217532
throughput change = 0.02734
Warmed up ...Time used is 1500 cycles
1
Class 0:
Minimum packet latency = 8
Average packet latency = 21.0867
Maximum packet latency = 26
Minimum network latency = 8
Average network latency = 21.0867
Maximum network latency = 26
Slowest packet = 16407
Minimum flit latency = 8
Average flit latency = 21.1078
Maximum flit latency = 26
Slowest flit = 16407
Minimum fragmentation = 0
Average fragmentation = 0
Maximum fragmentation = 0
Minimum injected packet rate = 0 (at node 94)
Average injected packet rate = 0.0102045
Maximum injected packet rate = 0.024 (at node 84)
Minimum accepted packet rate = 0 (at node 494)
Average accepted packet rate = 0.0101894
Maximum accepted packet rate = 0.028 (at node 612)
Minimum injected flit rate = 0 (at node 94)
Average injected flit rate = 0.0102045
Maximum injected flit rate = 0.024 (at node 84)
Minimum accepted flit rate = 0 (at node 494)
Average accepted flit rate = 0.0101894
Maximum accepted flit rate = 0.028 (at node 612)
Average injected packet length = 1
Average accepted packet length = 1
Total in-flight flits = 209 (209 measured)
latency change    = 3.33798e-06
throughput change = 0.0210037
1
Class 0:
Minimum packet latency = 8
Average packet latency = 21.1
Maximum packet latency = 26
Minimum network latency = 8
Average network latency = 21.1
Maximum network latency = 26
Slowest packet = 16407
Minimum flit latency = 8
Average flit latency = 21.1105
Maximum flit latency = 26
Slowest flit = 16407
Minimum fragmentation = 0
Average fragmentation = 0
Maximum fragmentation = 0
Minimum injected packet rate = 0.002 (at node 268)
Average injected packet rate = 0.0100909
Maximum injected packet rate = 0.022 (at node 196)
Minimum accepted packet rate = 0.002 (at node 95)
Average accepted packet rate = 0.0100814
Maximum accepted packet rate = 0.023 (at node 787)
Minimum injected flit rate = 0.002 (at node 268)
Average injected flit rate = 0.0100909
Maximum injected flit rate = 0.022 (at node 196)
Minimum accepted flit rate = 0.002 (at node 95)
Average accepted flit rate = 0.0100814
Maximum accepted flit rate = 0.023 (at node 787)
Average injected packet length = 1
Average accepted packet length = 1
Total in-flight flits = 211 (211 measured)
latency change    = 0.000632776
throughput change = 0.0107082
1
Class 0:
Minimum packet latency = 8
Average packet latency = 21.068
Maximum packet latency = 26
Minimum network latency = 8
Average network latency = 21.068
Maximum network latency = 26
Slowest packet = 16407
Minimum flit latency = 8
Average flit latency = 21.0753
Maximum flit latency = 26
Slowest flit = 16407
Minimum fragmentation = 0
Average fragmentation = 0
Maximum fragmentation = 0
Minimum injected packet rate = 0.00333333 (at node 39)
Average injected packet rate = 0.0101143
Maximum injected packet rate = 0.0206667 (at node 454)
Minimum accepted packet rate = 0.00333333 (at node 132)
Average accepted packet rate = 0.0101023
Maximum accepted packet rate = 0.0193333 (at node 769)
Minimum injected flit rate = 0.00333333 (at node 39)
Average injected flit rate = 0.0101143
Maximum injected flit rate = 0.0206667 (at node 454)
Minimum accepted flit rate = 0.00333333 (at node 132)
Average accepted flit rate = 0.0101023
Maximum accepted flit rate = 0.0193333 (at node 769)
Average injected packet length = 1
Average accepted packet length = 1
Total in-flight flits = 220 (220 measured)
latency change    = 0.00152257
throughput change = 0.00206224
Draining all recorded packets ...
Draining remaining packets ...
Time taken is 3051 cycles
====== Traffic class 0 ======
Overall minimum packet latency = 8 (1 samples)
Overall average packet latency = 21.0729 (1 samples)
Overall maximum packet latency = 26 (1 samples)
Overall minimum network latency = 8 (1 samples)
Overall average network latency = 21.0729 (1 samples)
Overall maximum network latency = 26 (1 samples)
Overall minimum flit latency = 8 (1 samples)
Overall average flit latency = 21.0798 (1 samples)
Overall maximum flit latency = 26 (1 samples)
Overall minimum fragmentation = 0 (1 samples)
Overall average fragmentation = 0 (1 samples)
Overall maximum fragmentation = 0 (1 samples)
Overall minimum injected packet rate = 0.00333333 (1 samples)
Overall average injected packet rate = 0.0101143 (1 samples)
Overall maximum injected packet rate = 0.0206667 (1 samples)
Overall minimum accepted packet rate = 0.00333333 (1 samples)
Overall average accepted packet rate = 0.0101023 (1 samples)
Overall maximum accepted packet rate = 0.0193333 (1 samples)
Overall minimum injected flit rate = 0.00333333 (1 samples)
Overall average injected flit rate = 0.0101143 (1 samples)
Overall maximum injected flit rate = 0.0206667 (1 samples)
Overall minimum accepted flit rate = 0.00333333 (1 samples)
Overall average accepted flit rate = 0.0101023 (1 samples)
Overall maximum accepted flit rate = 0.0193333 (1 samples)
Overall average injected packet size = 1 (1 samples)
Overall average accepted packet size = 1 (1 samples)
Overall average hops = 6.34211 (1 samples)
Total run time 20.7077
