BEGIN Configuration File: ./DF.conf
injection_rate = 0.35;
traffic = bad_dragon;
use_size_power_of_two = no;
routing_function = ugal;
vc_buf_size = 16;
topology = dragonflynew;
use_noc_latency = 0;
hold_switch_for_packet=0;

k = 5;
n = 1;

packet_size  = 1;
num_vcs      = 3;
vc_allocator = separable_input_first; 
sw_allocator = separable_input_first;

alloc_iters   = 1;
sample_period = 500;

wait_for_tail_credit = 0;
use_read_write       = 0;

credit_delay   = 2;
routing_delay  = 0;
vc_alloc_delay = 1;
sw_alloc_delay = 1;
st_final_delay = 1;

input_speedup     = 1;
output_speedup    = 1;
internal_speedup  = 2.0;

warmup_periods = 3;
sim_count      = 1;

priority = none;
injection_rate_uses_flits=1;

END Configuration File: ./DF.conf
Number of nodes: 2550
Number of routers: 510
 Dragonfly 
 p = 5 n = 1
 each switch - total radix =  19
 # of switches = 510
 # of channels = 7140
 # of nodes ( size of network ) = 2550
 # of groups (_g) = 51
 # of routers per group (_a) = 10
Done links
0
Class 0:
Minimum packet latency = 8
Average packet latency = 103.599
Maximum packet latency = 490
Minimum network latency = 8
Average network latency = 100.54
Maximum network latency = 490
Slowest packet = 5213
Minimum flit latency = 8
Average flit latency = 100.54
Maximum flit latency = 490
Slowest flit = 5213
Minimum fragmentation = 0
Average fragmentation = 0
Maximum fragmentation = 0
Minimum injected packet rate = 0.12 (at node 301)
Average injected packet rate = 0.206289
Maximum injected packet rate = 0.362 (at node 1606)
Minimum accepted packet rate = 0.054 (at node 1277)
Average accepted packet rate = 0.0993216
Maximum accepted packet rate = 0.158 (at node 1838)
Minimum injected flit rate = 0.12 (at node 301)
Average injected flit rate = 0.206289
Maximum injected flit rate = 0.362 (at node 1606)
Minimum accepted flit rate = 0.054 (at node 1277)
Average accepted flit rate = 0.0993216
Maximum accepted flit rate = 0.158 (at node 1838)
Average injected packet length = 1
Average accepted packet length = 1
Total in-flight flits = 138744 (0 measured)
latency change    = 1
throughput change = 1
0
Class 0:
Minimum packet latency = 8
Average packet latency = 255.857
Maximum packet latency = 974
Minimum network latency = 8
Average network latency = 231.552
Maximum network latency = 974
Slowest packet = 19374
Minimum flit latency = 8
Average flit latency = 231.552
Maximum flit latency = 974
Slowest flit = 19374
Minimum fragmentation = 0
Average fragmentation = 0
Maximum fragmentation = 0
Minimum injected packet rate = 0.069 (at node 401)
Average injected packet rate = 0.136896
Maximum injected packet rate = 0.251 (at node 1425)
Minimum accepted packet rate = 0.05 (at node 2123)
Average accepted packet rate = 0.0797984
Maximum accepted packet rate = 0.119 (at node 1838)
Minimum injected flit rate = 0.069 (at node 401)
Average injected flit rate = 0.136896
Maximum injected flit rate = 0.251 (at node 1425)
Minimum accepted flit rate = 0.05 (at node 2123)
Average accepted flit rate = 0.0797984
Maximum accepted flit rate = 0.119 (at node 1838)
Average injected packet length = 1
Average accepted packet length = 1
Total in-flight flits = 147968 (0 measured)
latency change    = 0.59509
throughput change = 0.244656
0
Class 0:
Minimum packet latency = 378
Average packet latency = 887.274
Maximum packet latency = 1457
Minimum network latency = 14
Average network latency = 693.9
Maximum network latency = 1457
Slowest packet = 34976
Minimum flit latency = 14
Average flit latency = 693.9
Maximum flit latency = 1457
Slowest flit = 34976
Minimum fragmentation = 0
Average fragmentation = 0
Maximum fragmentation = 0
Minimum injected packet rate = 0 (at node 61)
Average injected packet rate = 0.0537404
Maximum injected packet rate = 0.212 (at node 712)
Minimum accepted packet rate = 0.01 (at node 1360)
Average accepted packet rate = 0.0398447
Maximum accepted packet rate = 0.08 (at node 2056)
Minimum injected flit rate = 0 (at node 61)
Average injected flit rate = 0.0537404
Maximum injected flit rate = 0.212 (at node 712)
Minimum accepted flit rate = 0.01 (at node 1360)
Average accepted flit rate = 0.0398447
Maximum accepted flit rate = 0.08 (at node 2056)
Average injected packet length = 1
Average accepted packet length = 1
Total in-flight flits = 165764 (0 measured)
latency change    = 0.711637
throughput change = 1.00274
Average latency for class 0 exceeded 500 cycles. Aborting simulation.
Too many sample periods needed to converge
Simulation unstable, ending ...
Total run time 94.8893
