BEGIN Configuration File: ./FT3_1
injection_rate = 0.3;
traffic = bitrev;
use_size_power_of_two = yes;
routing_function = nca;
vc_buf_size = 16;
topology = fattree;
use_noc_latency = 0;
hold_switch_for_packet=0;

k = 10;
n = 3;

packet_size  = 1;
num_vcs      = 2;
vc_allocator = separable_input_first; 
sw_allocator = separable_input_first;

alloc_iters   = 1;
sample_period = 500;

wait_for_tail_credit = 0;
use_read_write       = 0;

credit_delay   = 2;
routing_delay  = 0;
vc_alloc_delay = 1;
sw_alloc_delay = 1;
st_final_delay = 1;

input_speedup     = 1;
output_speedup    = 1;
internal_speedup  = 2.0;

warmup_periods = 3;
sim_count      = 1;

priority = none;
injection_rate_uses_flits=1;

END Configuration File: ./FT3_1
Number of nodes: 1000
Number of routers: 300
Fat Tree
 k = 10 levels = 3
 each switch - total radix =  20
 # of switches = 300
 # of channels = 4000
 # of nodes ( size of network ) = 1000


Power of two: 512
#################################################################################
0
Class 0:
Minimum packet latency = 5
Average packet latency = 16.0304
Maximum packet latency = 24
Minimum network latency = 5
Average network latency = 16.0304
Maximum network latency = 24
Slowest packet = 11531
Minimum flit latency = 5
Average flit latency = 16.0304
Maximum flit latency = 24
Slowest flit = 11531
Minimum fragmentation = 0
Average fragmentation = 0
Maximum fragmentation = 0
Minimum injected packet rate = 0.232 (at node 444)
Average injected packet rate = 0.299043
Maximum injected packet rate = 0.346 (at node 267)
Minimum accepted packet rate = 0.228 (at node 123)
Average accepted packet rate = 0.289258
Maximum accepted packet rate = 0.336 (at node 502)
Minimum injected flit rate = 0.232 (at node 444)
Average injected flit rate = 0.299043
Maximum injected flit rate = 0.346 (at node 267)
Minimum accepted flit rate = 0.228 (at node 123)
Average accepted flit rate = 0.289258
Maximum accepted flit rate = 0.336 (at node 502)
Average injected packet length = 1
Average accepted packet length = 1
Total in-flight flits = 2505 (0 measured)
latency change    = 1
throughput change = 1
0
Class 0:
Minimum packet latency = 5
Average packet latency = 16.0504
Maximum packet latency = 24
Minimum network latency = 5
Average network latency = 16.0504
Maximum network latency = 24
Slowest packet = 11531
Minimum flit latency = 5
Average flit latency = 16.0504
Maximum flit latency = 24
Slowest flit = 11531
Minimum fragmentation = 0
Average fragmentation = 0
Maximum fragmentation = 0
Minimum injected packet rate = 0.261 (at node 240)
Average injected packet rate = 0.299334
Maximum injected packet rate = 0.334 (at node 187)
Minimum accepted packet rate = 0.255 (at node 30)
Average accepted packet rate = 0.29448
Maximum accepted packet rate = 0.33 (at node 378)
Minimum injected flit rate = 0.261 (at node 240)
Average injected flit rate = 0.299334
Maximum injected flit rate = 0.334 (at node 187)
Minimum accepted flit rate = 0.255 (at node 30)
Average accepted flit rate = 0.29448
Maximum accepted flit rate = 0.33 (at node 378)
Average injected packet length = 1
Average accepted packet length = 1
Total in-flight flits = 2485 (0 measured)
latency change    = 0.00124447
throughput change = 0.0177352
0
Class 0:
Minimum packet latency = 5
Average packet latency = 16.0808
Maximum packet latency = 26
Minimum network latency = 5
Average network latency = 16.0808
Maximum network latency = 26
Slowest packet = 208723
Minimum flit latency = 5
Average flit latency = 16.0808
Maximum flit latency = 26
Slowest flit = 208723
Minimum fragmentation = 0
Average fragmentation = 0
Maximum fragmentation = 0
Minimum injected packet rate = 0.248 (at node 26)
Average injected packet rate = 0.30009
Maximum injected packet rate = 0.358 (at node 13)
Minimum accepted packet rate = 0.244 (at node 235)
Average accepted packet rate = 0.299777
Maximum accepted packet rate = 0.358 (at node 352)
Minimum injected flit rate = 0.248 (at node 26)
Average injected flit rate = 0.30009
Maximum injected flit rate = 0.358 (at node 13)
Minimum accepted flit rate = 0.244 (at node 235)
Average accepted flit rate = 0.299777
Maximum accepted flit rate = 0.358 (at node 352)
Average injected packet length = 1
Average accepted packet length = 1
Total in-flight flits = 2565 (0 measured)
latency change    = 0.00188896
throughput change = 0.0176694
Warmed up ...Time used is 1500 cycles
1
Class 0:
Minimum packet latency = 5
Average packet latency = 16.0611
Maximum packet latency = 25
Minimum network latency = 5
Average network latency = 16.0611
Maximum network latency = 25
Slowest packet = 277923
Minimum flit latency = 5
Average flit latency = 16.0921
Maximum flit latency = 25
Slowest flit = 277923
Minimum fragmentation = 0
Average fragmentation = 0
Maximum fragmentation = 0
Minimum injected packet rate = 0.234 (at node 403)
Average injected packet rate = 0.29932
Maximum injected packet rate = 0.354 (at node 480)
Minimum accepted packet rate = 0.234 (at node 403)
Average accepted packet rate = 0.299508
Maximum accepted packet rate = 0.356 (at node 15)
Minimum injected flit rate = 0.234 (at node 403)
Average injected flit rate = 0.29932
Maximum injected flit rate = 0.354 (at node 480)
Minimum accepted flit rate = 0.234 (at node 403)
Average accepted flit rate = 0.299508
Maximum accepted flit rate = 0.356 (at node 15)
Average injected packet length = 1
Average accepted packet length = 1
Total in-flight flits = 2517 (2517 measured)
latency change    = 0.00122594
throughput change = 0.000899914
1
Class 0:
Minimum packet latency = 5
Average packet latency = 16.0737
Maximum packet latency = 25
Minimum network latency = 5
Average network latency = 16.0737
Maximum network latency = 25
Slowest packet = 277923
Minimum flit latency = 5
Average flit latency = 16.0889
Maximum flit latency = 25
Slowest flit = 277923
Minimum fragmentation = 0
Average fragmentation = 0
Maximum fragmentation = 0
Minimum injected packet rate = 0.258 (at node 403)
Average injected packet rate = 0.299338
Maximum injected packet rate = 0.339 (at node 6)
Minimum accepted packet rate = 0.259 (at node 403)
Average accepted packet rate = 0.299607
Maximum accepted packet rate = 0.344 (at node 406)
Minimum injected flit rate = 0.258 (at node 403)
Average injected flit rate = 0.299338
Maximum injected flit rate = 0.339 (at node 6)
Minimum accepted flit rate = 0.259 (at node 403)
Average accepted flit rate = 0.299607
Maximum accepted flit rate = 0.344 (at node 406)
Average injected packet length = 1
Average accepted packet length = 1
Total in-flight flits = 2427 (2427 measured)
latency change    = 0.000782099
throughput change = 0.000332466
1
Class 0:
Minimum packet latency = 5
Average packet latency = 16.0761
Maximum packet latency = 26
Minimum network latency = 5
Average network latency = 16.0761
Maximum network latency = 26
Slowest packet = 448469
Minimum flit latency = 5
Average flit latency = 16.0863
Maximum flit latency = 26
Slowest flit = 448469
Minimum fragmentation = 0
Average fragmentation = 0
Maximum fragmentation = 0
Minimum injected packet rate = 0.264 (at node 415)
Average injected packet rate = 0.299493
Maximum injected packet rate = 0.342667 (at node 35)
Minimum accepted packet rate = 0.264667 (at node 158)
Average accepted packet rate = 0.29956
Maximum accepted packet rate = 0.342 (at node 315)
Minimum injected flit rate = 0.264 (at node 415)
Average injected flit rate = 0.299493
Maximum injected flit rate = 0.342667 (at node 35)
Minimum accepted flit rate = 0.264667 (at node 158)
Average accepted flit rate = 0.29956
Maximum accepted flit rate = 0.342 (at node 315)
Average injected packet length = 1
Average accepted packet length = 1
Total in-flight flits = 2514 (2514 measured)
latency change    = 0.000152083
throughput change = 0.000158653
Draining all recorded packets ...
Draining remaining packets ...
Time taken is 3046 cycles
====== Traffic class 0 ======
Overall minimum packet latency = 5 (1 samples)
Overall average packet latency = 16.0857 (1 samples)
Overall maximum packet latency = 26 (1 samples)
Overall minimum network latency = 5 (1 samples)
Overall average network latency = 16.0857 (1 samples)
Overall maximum network latency = 26 (1 samples)
Overall minimum flit latency = 5 (1 samples)
Overall average flit latency = 16.0947 (1 samples)
Overall maximum flit latency = 26 (1 samples)
Overall minimum fragmentation = 0 (1 samples)
Overall average fragmentation = 0 (1 samples)
Overall maximum fragmentation = 0 (1 samples)
Overall minimum injected packet rate = 0.264 (1 samples)
Overall average injected packet rate = 0.299493 (1 samples)
Overall maximum injected packet rate = 0.342667 (1 samples)
Overall minimum accepted packet rate = 0.264667 (1 samples)
Overall average accepted packet rate = 0.29956 (1 samples)
Overall maximum accepted packet rate = 0.342 (1 samples)
Overall minimum injected flit rate = 0.264 (1 samples)
Overall average injected flit rate = 0.299493 (1 samples)
Overall maximum injected flit rate = 0.342667 (1 samples)
Overall minimum accepted flit rate = 0.264667 (1 samples)
Overall average accepted flit rate = 0.29956 (1 samples)
Overall maximum accepted flit rate = 0.342 (1 samples)
Overall average injected packet size = 1 (1 samples)
Overall average accepted packet size = 1 (1 samples)
Overall average hops = 4.48528 (1 samples)
Total run time 65.0719
