BEGIN Configuration File: ./FT3_1
injection_rate = 0.1;
traffic = bitrev;
use_size_power_of_two = yes;
routing_function = nca;
vc_buf_size = 16;
topology = fattree;
use_noc_latency = 0;
hold_switch_for_packet=0;

k = 10;
n = 3;

packet_size  = 1;
num_vcs      = 2;
vc_allocator = separable_input_first; 
sw_allocator = separable_input_first;

alloc_iters   = 1;
sample_period = 500;

wait_for_tail_credit = 0;
use_read_write       = 0;

credit_delay   = 2;
routing_delay  = 0;
vc_alloc_delay = 1;
sw_alloc_delay = 1;
st_final_delay = 1;

input_speedup     = 1;
output_speedup    = 1;
internal_speedup  = 2.0;

warmup_periods = 3;
sim_count      = 1;

priority = none;
injection_rate_uses_flits=1;

END Configuration File: ./FT3_1
Number of nodes: 1000
Number of routers: 300
Fat Tree
 k = 10 levels = 3
 each switch - total radix =  20
 # of switches = 300
 # of channels = 4000
 # of nodes ( size of network ) = 1000


Power of two: 512
#################################################################################
0
Class 0:
Minimum packet latency = 5
Average packet latency = 15.5617
Maximum packet latency = 20
Minimum network latency = 5
Average network latency = 15.5617
Maximum network latency = 20
Slowest packet = 1248
Minimum flit latency = 5
Average flit latency = 15.5617
Maximum flit latency = 20
Slowest flit = 1248
Minimum fragmentation = 0
Average fragmentation = 0
Maximum fragmentation = 0
Minimum injected packet rate = 0.062 (at node 334)
Average injected packet rate = 0.0991563
Maximum injected packet rate = 0.136 (at node 427)
Minimum accepted packet rate = 0.06 (at node 229)
Average accepted packet rate = 0.0959766
Maximum accepted packet rate = 0.136 (at node 427)
Minimum injected flit rate = 0.062 (at node 334)
Average injected flit rate = 0.0991563
Maximum injected flit rate = 0.136 (at node 427)
Minimum accepted flit rate = 0.06 (at node 229)
Average accepted flit rate = 0.0959766
Maximum accepted flit rate = 0.136 (at node 427)
Average injected packet length = 1
Average accepted packet length = 1
Total in-flight flits = 814 (0 measured)
latency change    = 1
throughput change = 1
0
Class 0:
Minimum packet latency = 5
Average packet latency = 15.591
Maximum packet latency = 21
Minimum network latency = 5
Average network latency = 15.591
Maximum network latency = 21
Slowest packet = 27912
Minimum flit latency = 5
Average flit latency = 15.591
Maximum flit latency = 21
Slowest flit = 27912
Minimum fragmentation = 0
Average fragmentation = 0
Maximum fragmentation = 0
Minimum injected packet rate = 0.074 (at node 118)
Average injected packet rate = 0.0992461
Maximum injected packet rate = 0.124 (at node 36)
Minimum accepted packet rate = 0.074 (at node 220)
Average accepted packet rate = 0.0976406
Maximum accepted packet rate = 0.122 (at node 72)
Minimum injected flit rate = 0.074 (at node 118)
Average injected flit rate = 0.0992461
Maximum injected flit rate = 0.124 (at node 36)
Minimum accepted flit rate = 0.074 (at node 220)
Average accepted flit rate = 0.0976406
Maximum accepted flit rate = 0.122 (at node 72)
Average injected packet length = 1
Average accepted packet length = 1
Total in-flight flits = 822 (0 measured)
latency change    = 0.00188275
throughput change = 0.0170427
0
Class 0:
Minimum packet latency = 5
Average packet latency = 15.5785
Maximum packet latency = 21
Minimum network latency = 5
Average network latency = 15.5785
Maximum network latency = 21
Slowest packet = 62181
Minimum flit latency = 5
Average flit latency = 15.5785
Maximum flit latency = 21
Slowest flit = 62181
Minimum fragmentation = 0
Average fragmentation = 0
Maximum fragmentation = 0
Minimum injected packet rate = 0.066 (at node 146)
Average injected packet rate = 0.10057
Maximum injected packet rate = 0.144 (at node 348)
Minimum accepted packet rate = 0.066 (at node 146)
Average accepted packet rate = 0.100535
Maximum accepted packet rate = 0.144 (at node 229)
Minimum injected flit rate = 0.066 (at node 146)
Average injected flit rate = 0.10057
Maximum injected flit rate = 0.144 (at node 348)
Minimum accepted flit rate = 0.066 (at node 146)
Average accepted flit rate = 0.100535
Maximum accepted flit rate = 0.144 (at node 229)
Average injected packet length = 1
Average accepted packet length = 1
Total in-flight flits = 831 (0 measured)
latency change    = 0.000802959
throughput change = 0.0287912
Warmed up ...Time used is 1500 cycles
1
Class 0:
Minimum packet latency = 5
Average packet latency = 15.5842
Maximum packet latency = 21
Minimum network latency = 5
Average network latency = 15.5842
Maximum network latency = 21
Slowest packet = 77263
Minimum flit latency = 5
Average flit latency = 15.6125
Maximum flit latency = 21
Slowest flit = 77263
Minimum fragmentation = 0
Average fragmentation = 0
Maximum fragmentation = 0
Minimum injected packet rate = 0.062 (at node 225)
Average injected packet rate = 0.10023
Maximum injected packet rate = 0.134 (at node 36)
Minimum accepted packet rate = 0.064 (at node 270)
Average accepted packet rate = 0.100187
Maximum accepted packet rate = 0.136 (at node 332)
Minimum injected flit rate = 0.062 (at node 225)
Average injected flit rate = 0.10023
Maximum injected flit rate = 0.134 (at node 36)
Minimum accepted flit rate = 0.064 (at node 270)
Average accepted flit rate = 0.100187
Maximum accepted flit rate = 0.136 (at node 332)
Average injected packet length = 1
Average accepted packet length = 1
Total in-flight flits = 842 (842 measured)
latency change    = 0.000367741
throughput change = 0.00347006
1
Class 0:
Minimum packet latency = 5
Average packet latency = 15.5773
Maximum packet latency = 21
Minimum network latency = 5
Average network latency = 15.5773
Maximum network latency = 21
Slowest packet = 77263
Minimum flit latency = 5
Average flit latency = 15.5915
Maximum flit latency = 21
Slowest flit = 77263
Minimum fragmentation = 0
Average fragmentation = 0
Maximum fragmentation = 0
Minimum injected packet rate = 0.073 (at node 403)
Average injected packet rate = 0.100168
Maximum injected packet rate = 0.133 (at node 36)
Minimum accepted packet rate = 0.074 (at node 403)
Average accepted packet rate = 0.100248
Maximum accepted packet rate = 0.136 (at node 331)
Minimum injected flit rate = 0.073 (at node 403)
Average injected flit rate = 0.100168
Maximum injected flit rate = 0.133 (at node 36)
Minimum accepted flit rate = 0.074 (at node 403)
Average accepted flit rate = 0.100248
Maximum accepted flit rate = 0.136 (at node 331)
Average injected packet length = 1
Average accepted packet length = 1
Total in-flight flits = 790 (790 measured)
latency change    = 0.000447008
throughput change = 0.000603971
1
Class 0:
Minimum packet latency = 5
Average packet latency = 15.5935
Maximum packet latency = 21
Minimum network latency = 5
Average network latency = 15.5935
Maximum network latency = 21
Slowest packet = 77263
Minimum flit latency = 5
Average flit latency = 15.6028
Maximum flit latency = 21
Slowest flit = 77263
Minimum fragmentation = 0
Average fragmentation = 0
Maximum fragmentation = 0
Minimum injected packet rate = 0.0706667 (at node 225)
Average injected packet rate = 0.100443
Maximum injected packet rate = 0.124667 (at node 266)
Minimum accepted packet rate = 0.0713333 (at node 270)
Average accepted packet rate = 0.100525
Maximum accepted packet rate = 0.124 (at node 72)
Minimum injected flit rate = 0.0706667 (at node 225)
Average injected flit rate = 0.100443
Maximum injected flit rate = 0.124667 (at node 266)
Minimum accepted flit rate = 0.0713333 (at node 270)
Average accepted flit rate = 0.100525
Maximum accepted flit rate = 0.124 (at node 72)
Average injected packet length = 1
Average accepted packet length = 1
Total in-flight flits = 768 (768 measured)
latency change    = 0.00103994
throughput change = 0.00275248
Draining all recorded packets ...
Draining remaining packets ...
Time taken is 3040 cycles
====== Traffic class 0 ======
Overall minimum packet latency = 5 (1 samples)
Overall average packet latency = 15.6002 (1 samples)
Overall maximum packet latency = 21 (1 samples)
Overall minimum network latency = 5 (1 samples)
Overall average network latency = 15.6002 (1 samples)
Overall maximum network latency = 21 (1 samples)
Overall minimum flit latency = 5 (1 samples)
Overall average flit latency = 15.6086 (1 samples)
Overall maximum flit latency = 21 (1 samples)
Overall minimum fragmentation = 0 (1 samples)
Overall average fragmentation = 0 (1 samples)
Overall maximum fragmentation = 0 (1 samples)
Overall minimum injected packet rate = 0.0706667 (1 samples)
Overall average injected packet rate = 0.100443 (1 samples)
Overall maximum injected packet rate = 0.124667 (1 samples)
Overall minimum accepted packet rate = 0.0713333 (1 samples)
Overall average accepted packet rate = 0.100525 (1 samples)
Overall maximum accepted packet rate = 0.124 (1 samples)
Overall minimum injected flit rate = 0.0706667 (1 samples)
Overall average injected flit rate = 0.100443 (1 samples)
Overall maximum injected flit rate = 0.124667 (1 samples)
Overall minimum accepted flit rate = 0.0713333 (1 samples)
Overall average accepted flit rate = 0.100525 (1 samples)
Overall maximum accepted flit rate = 0.124 (1 samples)
Overall average injected packet size = 1 (1 samples)
Overall average accepted packet size = 1 (1 samples)
Overall average hops = 4.48232 (1 samples)
Total run time 36.1238
