BEGIN Configuration File: ./FT3_1
injection_rate = 0.9;
traffic = bitrev;
use_size_power_of_two = yes;
routing_function = nca;
vc_buf_size = 16;
topology = fattree;
use_noc_latency = 0;
hold_switch_for_packet=0;

k = 10;
n = 3;

packet_size  = 1;
num_vcs      = 2;
vc_allocator = separable_input_first; 
sw_allocator = separable_input_first;

alloc_iters   = 1;
sample_period = 500;

wait_for_tail_credit = 0;
use_read_write       = 0;

credit_delay   = 2;
routing_delay  = 0;
vc_alloc_delay = 1;
sw_alloc_delay = 1;
st_final_delay = 1;

input_speedup     = 1;
output_speedup    = 1;
internal_speedup  = 2.0;

warmup_periods = 3;
sim_count      = 1;

priority = none;
injection_rate_uses_flits=1;

END Configuration File: ./FT3_1
Number of nodes: 1000
Number of routers: 300
Fat Tree
 k = 10 levels = 3
 each switch - total radix =  20
 # of switches = 300
 # of channels = 4000
 # of nodes ( size of network ) = 1000


Power of two: 512
#################################################################################
0
Class 0:
Minimum packet latency = 5
Average packet latency = 23.4978
Maximum packet latency = 71
Minimum network latency = 5
Average network latency = 23.4978
Maximum network latency = 71
Slowest packet = 195594
Minimum flit latency = 5
Average flit latency = 23.4978
Maximum flit latency = 71
Slowest flit = 195594
Minimum fragmentation = 0
Average fragmentation = 0
Maximum fragmentation = 0
Minimum injected packet rate = 0.86 (at node 110)
Average injected packet rate = 0.899863
Maximum injected packet rate = 0.934 (at node 501)
Minimum accepted packet rate = 0.814 (at node 236)
Average accepted packet rate = 0.856535
Maximum accepted packet rate = 0.912 (at node 254)
Minimum injected flit rate = 0.86 (at node 110)
Average injected flit rate = 0.899863
Maximum injected flit rate = 0.934 (at node 501)
Minimum accepted flit rate = 0.814 (at node 236)
Average accepted flit rate = 0.856535
Maximum accepted flit rate = 0.912 (at node 254)
Average injected packet length = 1
Average accepted packet length = 1
Total in-flight flits = 11092 (0 measured)
latency change    = 1
throughput change = 1
0
Class 0:
Minimum packet latency = 5
Average packet latency = 23.9223
Maximum packet latency = 100
Minimum network latency = 5
Average network latency = 23.9223
Maximum network latency = 100
Slowest packet = 357880
Minimum flit latency = 5
Average flit latency = 23.9223
Maximum flit latency = 100
Slowest flit = 357880
Minimum fragmentation = 0
Average fragmentation = 0
Maximum fragmentation = 0
Minimum injected packet rate = 0.866 (at node 158)
Average injected packet rate = 0.90008
Maximum injected packet rate = 0.93 (at node 344)
Minimum accepted packet rate = 0.839 (at node 242)
Average accepted packet rate = 0.877883
Maximum accepted packet rate = 0.912 (at node 511)
Minimum injected flit rate = 0.866 (at node 158)
Average injected flit rate = 0.90008
Maximum injected flit rate = 0.93 (at node 344)
Minimum accepted flit rate = 0.839 (at node 242)
Average accepted flit rate = 0.877883
Maximum accepted flit rate = 0.912 (at node 511)
Average injected packet length = 1
Average accepted packet length = 1
Total in-flight flits = 11365 (0 measured)
latency change    = 0.017745
throughput change = 0.0243172
0
Class 0:
Minimum packet latency = 5
Average packet latency = 24.2655
Maximum packet latency = 83
Minimum network latency = 5
Average network latency = 24.2655
Maximum network latency = 83
Slowest packet = 600911
Minimum flit latency = 5
Average flit latency = 24.2655
Maximum flit latency = 83
Slowest flit = 600911
Minimum fragmentation = 0
Average fragmentation = 0
Maximum fragmentation = 0
Minimum injected packet rate = 0.862 (at node 218)
Average injected packet rate = 0.899613
Maximum injected packet rate = 0.936 (at node 88)
Minimum accepted packet rate = 0.864 (at node 292)
Average accepted packet rate = 0.900312
Maximum accepted packet rate = 0.94 (at node 38)
Minimum injected flit rate = 0.862 (at node 218)
Average injected flit rate = 0.899613
Maximum injected flit rate = 0.936 (at node 88)
Minimum accepted flit rate = 0.864 (at node 292)
Average accepted flit rate = 0.900312
Maximum accepted flit rate = 0.94 (at node 38)
Average injected packet length = 1
Average accepted packet length = 1
Total in-flight flits = 11186 (0 measured)
latency change    = 0.0141462
throughput change = 0.0249132
Warmed up ...Time used is 1500 cycles
1
Class 0:
Minimum packet latency = 5
Average packet latency = 24.1725
Maximum packet latency = 71
Minimum network latency = 5
Average network latency = 24.1725
Maximum network latency = 71
Slowest packet = 808511
Minimum flit latency = 5
Average flit latency = 24.2988
Maximum flit latency = 73
Slowest flit = 660554
Minimum fragmentation = 0
Average fragmentation = 0
Maximum fragmentation = 0
Minimum injected packet rate = 0.856 (at node 291)
Average injected packet rate = 0.90107
Maximum injected packet rate = 0.938 (at node 457)
Minimum accepted packet rate = 0.858 (at node 393)
Average accepted packet rate = 0.900691
Maximum accepted packet rate = 0.94 (at node 132)
Minimum injected flit rate = 0.856 (at node 291)
Average injected flit rate = 0.90107
Maximum injected flit rate = 0.938 (at node 457)
Minimum accepted flit rate = 0.858 (at node 393)
Average accepted flit rate = 0.900691
Maximum accepted flit rate = 0.94 (at node 132)
Average injected packet length = 1
Average accepted packet length = 1
Total in-flight flits = 11283 (11283 measured)
latency change    = 0.00384645
throughput change = 0.000420684
1
Class 0:
Minimum packet latency = 5
Average packet latency = 24.2062
Maximum packet latency = 80
Minimum network latency = 5
Average network latency = 24.2062
Maximum network latency = 80
Slowest packet = 1115223
Minimum flit latency = 5
Average flit latency = 24.2686
Maximum flit latency = 80
Slowest flit = 1115223
Minimum fragmentation = 0
Average fragmentation = 0
Maximum fragmentation = 0
Minimum injected packet rate = 0.873 (at node 252)
Average injected packet rate = 0.900266
Maximum injected packet rate = 0.931 (at node 481)
Minimum accepted packet rate = 0.872 (at node 126)
Average accepted packet rate = 0.900234
Maximum accepted packet rate = 0.925 (at node 205)
Minimum injected flit rate = 0.873 (at node 252)
Average injected flit rate = 0.900266
Maximum injected flit rate = 0.931 (at node 481)
Minimum accepted flit rate = 0.872 (at node 126)
Average accepted flit rate = 0.900234
Maximum accepted flit rate = 0.925 (at node 205)
Average injected packet length = 1
Average accepted packet length = 1
Total in-flight flits = 11202 (11202 measured)
latency change    = 0.00139168
throughput change = 0.00050768
1
Class 0:
Minimum packet latency = 5
Average packet latency = 24.2584
Maximum packet latency = 84
Minimum network latency = 5
Average network latency = 24.2584
Maximum network latency = 84
Slowest packet = 1118880
Minimum flit latency = 5
Average flit latency = 24.2992
Maximum flit latency = 84
Slowest flit = 1118880
Minimum fragmentation = 0
Average fragmentation = 0
Maximum fragmentation = 0
Minimum injected packet rate = 0.875333 (at node 271)
Average injected packet rate = 0.899888
Maximum injected packet rate = 0.922667 (at node 505)
Minimum accepted packet rate = 0.878667 (at node 189)
Average accepted packet rate = 0.899742
Maximum accepted packet rate = 0.919333 (at node 89)
Minimum injected flit rate = 0.875333 (at node 271)
Average injected flit rate = 0.899888
Maximum injected flit rate = 0.922667 (at node 505)
Minimum accepted flit rate = 0.878667 (at node 189)
Average accepted flit rate = 0.899742
Maximum accepted flit rate = 0.919333 (at node 89)
Average injected packet length = 1
Average accepted packet length = 1
Total in-flight flits = 11298 (11298 measured)
latency change    = 0.00215244
throughput change = 0.000547032
Draining all recorded packets ...
Draining remaining packets ...
Time taken is 3107 cycles
====== Traffic class 0 ======
Overall minimum packet latency = 5 (1 samples)
Overall average packet latency = 24.3068 (1 samples)
Overall maximum packet latency = 84 (1 samples)
Overall minimum network latency = 5 (1 samples)
Overall average network latency = 24.3068 (1 samples)
Overall maximum network latency = 84 (1 samples)
Overall minimum flit latency = 5 (1 samples)
Overall average flit latency = 24.3385 (1 samples)
Overall maximum flit latency = 84 (1 samples)
Overall minimum fragmentation = 0 (1 samples)
Overall average fragmentation = 0 (1 samples)
Overall maximum fragmentation = 0 (1 samples)
Overall minimum injected packet rate = 0.875333 (1 samples)
Overall average injected packet rate = 0.899888 (1 samples)
Overall maximum injected packet rate = 0.922667 (1 samples)
Overall minimum accepted packet rate = 0.878667 (1 samples)
Overall average accepted packet rate = 0.899742 (1 samples)
Overall maximum accepted packet rate = 0.919333 (1 samples)
Overall minimum injected flit rate = 0.875333 (1 samples)
Overall average injected flit rate = 0.899888 (1 samples)
Overall maximum injected flit rate = 0.922667 (1 samples)
Overall minimum accepted flit rate = 0.878667 (1 samples)
Overall average accepted flit rate = 0.899742 (1 samples)
Overall maximum accepted flit rate = 0.919333 (1 samples)
Overall average injected packet size = 1 (1 samples)
Overall average accepted packet size = 1 (1 samples)
Overall average hops = 4.48394 (1 samples)
Total run time 143.723
