BEGIN Configuration File: ./FT3
injection_rate = 0.7;
traffic = bitrev;
use_size_power_of_two = yes;
routing_function = anca;
vc_buf_size = 16;
topology = fattree;
use_noc_latency = 0;
hold_switch_for_packet=0;

k = 10;
n = 3;

packet_size  = 1;
num_vcs      = 2;
vc_allocator = separable_input_first; 
sw_allocator = separable_input_first;

alloc_iters   = 1;
sample_period = 500;

wait_for_tail_credit = 0;
use_read_write       = 0;

credit_delay   = 2;
routing_delay  = 0;
vc_alloc_delay = 1;
sw_alloc_delay = 1;
st_final_delay = 1;

input_speedup     = 1;
output_speedup    = 1;
internal_speedup  = 2.0;

warmup_periods = 3;
sim_count      = 1;

priority = none;
injection_rate_uses_flits=1;

END Configuration File: ./FT3
Number of nodes: 1000
Number of routers: 300
Fat Tree
 k = 10 levels = 3
 each switch - total radix =  20
 # of switches = 300
 # of channels = 4000
 # of nodes ( size of network ) = 1000


Power of two: 512
#################################################################################
0
Class 0:
Minimum packet latency = 5
Average packet latency = 18.938
Maximum packet latency = 38
Minimum network latency = 5
Average network latency = 18.938
Maximum network latency = 38
Slowest packet = 22245
Minimum flit latency = 5
Average flit latency = 18.938
Maximum flit latency = 38
Slowest flit = 22245
Minimum fragmentation = 0
Average fragmentation = 0
Maximum fragmentation = 0
Minimum injected packet rate = 0.632 (at node 428)
Average injected packet rate = 0.699313
Maximum injected packet rate = 0.76 (at node 467)
Minimum accepted packet rate = 0.606 (at node 107)
Average accepted packet rate = 0.672559
Maximum accepted packet rate = 0.748 (at node 254)
Minimum injected flit rate = 0.632 (at node 428)
Average injected flit rate = 0.699313
Maximum injected flit rate = 0.76 (at node 467)
Minimum accepted flit rate = 0.606 (at node 107)
Average accepted flit rate = 0.672559
Maximum accepted flit rate = 0.748 (at node 254)
Average injected packet length = 1
Average accepted packet length = 1
Total in-flight flits = 6849 (0 measured)
latency change    = 1
throughput change = 1
0
Class 0:
Minimum packet latency = 5
Average packet latency = 18.9787
Maximum packet latency = 39
Minimum network latency = 5
Average network latency = 18.9787
Maximum network latency = 39
Slowest packet = 190304
Minimum flit latency = 5
Average flit latency = 18.9787
Maximum flit latency = 39
Slowest flit = 190304
Minimum fragmentation = 0
Average fragmentation = 0
Maximum fragmentation = 0
Minimum injected packet rate = 0.655 (at node 171)
Average injected packet rate = 0.69924
Maximum injected packet rate = 0.743 (at node 254)
Minimum accepted packet rate = 0.641 (at node 107)
Average accepted packet rate = 0.68575
Maximum accepted packet rate = 0.74 (at node 254)
Minimum injected flit rate = 0.655 (at node 171)
Average injected flit rate = 0.69924
Maximum injected flit rate = 0.743 (at node 254)
Minimum accepted flit rate = 0.641 (at node 107)
Average accepted flit rate = 0.68575
Maximum accepted flit rate = 0.74 (at node 254)
Average injected packet length = 1
Average accepted packet length = 1
Total in-flight flits = 6907 (0 measured)
latency change    = 0.00214645
throughput change = 0.0192365
0
Class 0:
Minimum packet latency = 5
Average packet latency = 19.0285
Maximum packet latency = 39
Minimum network latency = 5
Average network latency = 19.0285
Maximum network latency = 39
Slowest packet = 503953
Minimum flit latency = 5
Average flit latency = 19.0285
Maximum flit latency = 39
Slowest flit = 503953
Minimum fragmentation = 0
Average fragmentation = 0
Maximum fragmentation = 0
Minimum injected packet rate = 0.636 (at node 184)
Average injected packet rate = 0.699387
Maximum injected packet rate = 0.752 (at node 149)
Minimum accepted packet rate = 0.63 (at node 58)
Average accepted packet rate = 0.699465
Maximum accepted packet rate = 0.756 (at node 168)
Minimum injected flit rate = 0.636 (at node 184)
Average injected flit rate = 0.699387
Maximum injected flit rate = 0.752 (at node 149)
Minimum accepted flit rate = 0.63 (at node 58)
Average accepted flit rate = 0.699465
Maximum accepted flit rate = 0.756 (at node 168)
Average injected packet length = 1
Average accepted packet length = 1
Total in-flight flits = 6887 (0 measured)
latency change    = 0.00261402
throughput change = 0.0196076
Warmed up ...Time used is 1500 cycles
1
Class 0:
Minimum packet latency = 5
Average packet latency = 18.9695
Maximum packet latency = 40
Minimum network latency = 5
Average network latency = 18.9695
Maximum network latency = 40
Slowest packet = 699123
Minimum flit latency = 5
Average flit latency = 19.0275
Maximum flit latency = 40
Slowest flit = 699123
Minimum fragmentation = 0
Average fragmentation = 0
Maximum fragmentation = 0
Minimum injected packet rate = 0.632 (at node 146)
Average injected packet rate = 0.700887
Maximum injected packet rate = 0.754 (at node 441)
Minimum accepted packet rate = 0.63 (at node 146)
Average accepted packet rate = 0.700957
Maximum accepted packet rate = 0.756 (at node 7)
Minimum injected flit rate = 0.632 (at node 146)
Average injected flit rate = 0.700887
Maximum injected flit rate = 0.754 (at node 441)
Minimum accepted flit rate = 0.63 (at node 146)
Average accepted flit rate = 0.700957
Maximum accepted flit rate = 0.756 (at node 7)
Average injected packet length = 1
Average accepted packet length = 1
Total in-flight flits = 6869 (6869 measured)
latency change    = 0.00311055
throughput change = 0.00212879
1
Class 0:
Minimum packet latency = 5
Average packet latency = 19.013
Maximum packet latency = 42
Minimum network latency = 5
Average network latency = 19.013
Maximum network latency = 42
Slowest packet = 747030
Minimum flit latency = 5
Average flit latency = 19.0413
Maximum flit latency = 42
Slowest flit = 747030
Minimum fragmentation = 0
Average fragmentation = 0
Maximum fragmentation = 0
Minimum injected packet rate = 0.658 (at node 247)
Average injected packet rate = 0.700346
Maximum injected packet rate = 0.747 (at node 398)
Minimum accepted packet rate = 0.659 (at node 478)
Average accepted packet rate = 0.700557
Maximum accepted packet rate = 0.745 (at node 227)
Minimum injected flit rate = 0.658 (at node 247)
Average injected flit rate = 0.700346
Maximum injected flit rate = 0.747 (at node 398)
Minimum accepted flit rate = 0.659 (at node 478)
Average accepted flit rate = 0.700557
Maximum accepted flit rate = 0.745 (at node 227)
Average injected packet length = 1
Average accepted packet length = 1
Total in-flight flits = 6779 (6779 measured)
latency change    = 0.00229267
throughput change = 0.000571532
1
Class 0:
Minimum packet latency = 5
Average packet latency = 19.0199
Maximum packet latency = 42
Minimum network latency = 5
Average network latency = 19.0199
Maximum network latency = 42
Slowest packet = 747030
Minimum flit latency = 5
Average flit latency = 19.0386
Maximum flit latency = 42
Slowest flit = 747030
Minimum fragmentation = 0
Average fragmentation = 0
Maximum fragmentation = 0
Minimum injected packet rate = 0.666 (at node 146)
Average injected packet rate = 0.700161
Maximum injected packet rate = 0.732667 (at node 27)
Minimum accepted packet rate = 0.664667 (at node 481)
Average accepted packet rate = 0.700172
Maximum accepted packet rate = 0.732667 (at node 165)
Minimum injected flit rate = 0.666 (at node 146)
Average injected flit rate = 0.700161
Maximum injected flit rate = 0.732667 (at node 27)
Minimum accepted flit rate = 0.664667 (at node 481)
Average accepted flit rate = 0.700172
Maximum accepted flit rate = 0.732667 (at node 165)
Average injected packet length = 1
Average accepted packet length = 1
Total in-flight flits = 6879 (6879 measured)
latency change    = 0.000358877
throughput change = 0.00054953
Draining all recorded packets ...
Draining remaining packets ...
Time taken is 3065 cycles
====== Traffic class 0 ======
Overall minimum packet latency = 5 (1 samples)
Overall average packet latency = 19.0393 (1 samples)
Overall maximum packet latency = 42 (1 samples)
Overall minimum network latency = 5 (1 samples)
Overall average network latency = 19.0393 (1 samples)
Overall maximum network latency = 42 (1 samples)
Overall minimum flit latency = 5 (1 samples)
Overall average flit latency = 19.0545 (1 samples)
Overall maximum flit latency = 42 (1 samples)
Overall minimum fragmentation = 0 (1 samples)
Overall average fragmentation = 0 (1 samples)
Overall maximum fragmentation = 0 (1 samples)
Overall minimum injected packet rate = 0.666 (1 samples)
Overall average injected packet rate = 0.700161 (1 samples)
Overall maximum injected packet rate = 0.732667 (1 samples)
Overall minimum accepted packet rate = 0.664667 (1 samples)
Overall average accepted packet rate = 0.700172 (1 samples)
Overall maximum accepted packet rate = 0.732667 (1 samples)
Overall minimum injected flit rate = 0.666 (1 samples)
Overall average injected flit rate = 0.700161 (1 samples)
Overall maximum injected flit rate = 0.732667 (1 samples)
Overall minimum accepted flit rate = 0.664667 (1 samples)
Overall average accepted flit rate = 0.700172 (1 samples)
Overall maximum accepted flit rate = 0.732667 (1 samples)
Overall average injected packet size = 1 (1 samples)
Overall average accepted packet size = 1 (1 samples)
Overall average hops = 4.48445 (1 samples)
Total run time 122.514
