BEGIN Configuration File: ./FT3_1
injection_rate = 0.8;
traffic = bitrev;
use_size_power_of_two = yes;
routing_function = nca;
vc_buf_size = 16;
topology = fattree;
use_noc_latency = 0;
hold_switch_for_packet=0;

k = 10;
n = 3;

packet_size  = 1;
num_vcs      = 2;
vc_allocator = separable_input_first; 
sw_allocator = separable_input_first;

alloc_iters   = 1;
sample_period = 500;

wait_for_tail_credit = 0;
use_read_write       = 0;

credit_delay   = 2;
routing_delay  = 0;
vc_alloc_delay = 1;
sw_alloc_delay = 1;
st_final_delay = 1;

input_speedup     = 1;
output_speedup    = 1;
internal_speedup  = 2.0;

warmup_periods = 3;
sim_count      = 1;

priority = none;
injection_rate_uses_flits=1;

END Configuration File: ./FT3_1
Number of nodes: 1000
Number of routers: 300
Fat Tree
 k = 10 levels = 3
 each switch - total radix =  20
 # of switches = 300
 # of channels = 4000
 # of nodes ( size of network ) = 1000


Power of two: 512
#################################################################################
0
Class 0:
Minimum packet latency = 5
Average packet latency = 20.1114
Maximum packet latency = 50
Minimum network latency = 5
Average network latency = 20.1114
Maximum network latency = 50
Slowest packet = 154450
Minimum flit latency = 5
Average flit latency = 20.1114
Maximum flit latency = 50
Slowest flit = 154450
Minimum fragmentation = 0
Average fragmentation = 0
Maximum fragmentation = 0
Minimum injected packet rate = 0.74 (at node 154)
Average injected packet rate = 0.79868
Maximum injected packet rate = 0.85 (at node 254)
Minimum accepted packet rate = 0.706 (at node 236)
Average accepted packet rate = 0.766469
Maximum accepted packet rate = 0.84 (at node 254)
Minimum injected flit rate = 0.74 (at node 154)
Average injected flit rate = 0.79868
Maximum injected flit rate = 0.85 (at node 254)
Minimum accepted flit rate = 0.706 (at node 236)
Average accepted flit rate = 0.766469
Maximum accepted flit rate = 0.84 (at node 254)
Average injected packet length = 1
Average accepted packet length = 1
Total in-flight flits = 8246 (0 measured)
latency change    = 1
throughput change = 1
0
Class 0:
Minimum packet latency = 5
Average packet latency = 20.178
Maximum packet latency = 51
Minimum network latency = 5
Average network latency = 20.178
Maximum network latency = 51
Slowest packet = 260359
Minimum flit latency = 5
Average flit latency = 20.178
Maximum flit latency = 51
Slowest flit = 260359
Minimum fragmentation = 0
Average fragmentation = 0
Maximum fragmentation = 0
Minimum injected packet rate = 0.759 (at node 154)
Average injected packet rate = 0.799102
Maximum injected packet rate = 0.841 (at node 269)
Minimum accepted packet rate = 0.747 (at node 178)
Average accepted packet rate = 0.782879
Maximum accepted packet rate = 0.833 (at node 254)
Minimum injected flit rate = 0.759 (at node 154)
Average injected flit rate = 0.799102
Maximum injected flit rate = 0.841 (at node 269)
Minimum accepted flit rate = 0.747 (at node 178)
Average accepted flit rate = 0.782879
Maximum accepted flit rate = 0.833 (at node 254)
Average injected packet length = 1
Average accepted packet length = 1
Total in-flight flits = 8306 (0 measured)
latency change    = 0.00330418
throughput change = 0.0209613
0
Class 0:
Minimum packet latency = 5
Average packet latency = 20.262
Maximum packet latency = 51
Minimum network latency = 5
Average network latency = 20.262
Maximum network latency = 51
Slowest packet = 481361
Minimum flit latency = 5
Average flit latency = 20.262
Maximum flit latency = 51
Slowest flit = 481361
Minimum fragmentation = 0
Average fragmentation = 0
Maximum fragmentation = 0
Minimum injected packet rate = 0.752 (at node 131)
Average injected packet rate = 0.798902
Maximum injected packet rate = 0.85 (at node 88)
Minimum accepted packet rate = 0.748 (at node 58)
Average accepted packet rate = 0.799117
Maximum accepted packet rate = 0.848 (at node 239)
Minimum injected flit rate = 0.752 (at node 131)
Average injected flit rate = 0.798902
Maximum injected flit rate = 0.85 (at node 88)
Minimum accepted flit rate = 0.748 (at node 58)
Average accepted flit rate = 0.799117
Maximum accepted flit rate = 0.848 (at node 239)
Average injected packet length = 1
Average accepted packet length = 1
Total in-flight flits = 8251 (0 measured)
latency change    = 0.00414658
throughput change = 0.0203203
Warmed up ...Time used is 1500 cycles
1
Class 0:
Minimum packet latency = 5
Average packet latency = 20.2033
Maximum packet latency = 49
Minimum network latency = 5
Average network latency = 20.2033
Maximum network latency = 49
Slowest packet = 730889
Minimum flit latency = 5
Average flit latency = 20.2646
Maximum flit latency = 49
Slowest flit = 730889
Minimum fragmentation = 0
Average fragmentation = 0
Maximum fragmentation = 0
Minimum injected packet rate = 0.748 (at node 409)
Average injected packet rate = 0.800156
Maximum injected packet rate = 0.856 (at node 110)
Minimum accepted packet rate = 0.75 (at node 307)
Average accepted packet rate = 0.799902
Maximum accepted packet rate = 0.85 (at node 7)
Minimum injected flit rate = 0.748 (at node 409)
Average injected flit rate = 0.800156
Maximum injected flit rate = 0.856 (at node 110)
Minimum accepted flit rate = 0.75 (at node 307)
Average accepted flit rate = 0.799902
Maximum accepted flit rate = 0.85 (at node 7)
Average injected packet length = 1
Average accepted packet length = 1
Total in-flight flits = 8316 (8316 measured)
latency change    = 0.00291015
throughput change = 0.000981565
1
Class 0:
Minimum packet latency = 5
Average packet latency = 20.2576
Maximum packet latency = 49
Minimum network latency = 5
Average network latency = 20.2576
Maximum network latency = 49
Slowest packet = 730889
Minimum flit latency = 5
Average flit latency = 20.2872
Maximum flit latency = 49
Slowest flit = 730889
Minimum fragmentation = 0
Average fragmentation = 0
Maximum fragmentation = 0
Minimum injected packet rate = 0.765 (at node 271)
Average injected packet rate = 0.800076
Maximum injected packet rate = 0.834 (at node 421)
Minimum accepted packet rate = 0.766 (at node 475)
Average accepted packet rate = 0.800004
Maximum accepted packet rate = 0.84 (at node 331)
Minimum injected flit rate = 0.765 (at node 271)
Average injected flit rate = 0.800076
Maximum injected flit rate = 0.834 (at node 421)
Minimum accepted flit rate = 0.766 (at node 475)
Average accepted flit rate = 0.800004
Maximum accepted flit rate = 0.84 (at node 331)
Average injected packet length = 1
Average accepted packet length = 1
Total in-flight flits = 8288 (8288 measured)
latency change    = 0.00268502
throughput change = 0.000126953
1
Class 0:
Minimum packet latency = 5
Average packet latency = 20.2723
Maximum packet latency = 49
Minimum network latency = 5
Average network latency = 20.2723
Maximum network latency = 49
Slowest packet = 730889
Minimum flit latency = 5
Average flit latency = 20.2918
Maximum flit latency = 49
Slowest flit = 730889
Minimum fragmentation = 0
Average fragmentation = 0
Maximum fragmentation = 0
Minimum injected packet rate = 0.763333 (at node 271)
Average injected packet rate = 0.799797
Maximum injected packet rate = 0.83 (at node 489)
Minimum accepted packet rate = 0.765333 (at node 481)
Average accepted packet rate = 0.799707
Maximum accepted packet rate = 0.828667 (at node 303)
Minimum injected flit rate = 0.763333 (at node 271)
Average injected flit rate = 0.799797
Maximum injected flit rate = 0.83 (at node 489)
Minimum accepted flit rate = 0.765333 (at node 481)
Average accepted flit rate = 0.799707
Maximum accepted flit rate = 0.828667 (at node 303)
Average injected packet length = 1
Average accepted packet length = 1
Total in-flight flits = 8320 (8320 measured)
latency change    = 0.000721851
throughput change = 0.00037123
Draining all recorded packets ...
Draining remaining packets ...
Time taken is 3086 cycles
====== Traffic class 0 ======
Overall minimum packet latency = 5 (1 samples)
Overall average packet latency = 20.2936 (1 samples)
Overall maximum packet latency = 53 (1 samples)
Overall minimum network latency = 5 (1 samples)
Overall average network latency = 20.2936 (1 samples)
Overall maximum network latency = 53 (1 samples)
Overall minimum flit latency = 5 (1 samples)
Overall average flit latency = 20.3091 (1 samples)
Overall maximum flit latency = 53 (1 samples)
Overall minimum fragmentation = 0 (1 samples)
Overall average fragmentation = 0 (1 samples)
Overall maximum fragmentation = 0 (1 samples)
Overall minimum injected packet rate = 0.763333 (1 samples)
Overall average injected packet rate = 0.799797 (1 samples)
Overall maximum injected packet rate = 0.83 (1 samples)
Overall minimum accepted packet rate = 0.765333 (1 samples)
Overall average accepted packet rate = 0.799707 (1 samples)
Overall maximum accepted packet rate = 0.828667 (1 samples)
Overall minimum injected flit rate = 0.763333 (1 samples)
Overall average injected flit rate = 0.799797 (1 samples)
Overall maximum injected flit rate = 0.83 (1 samples)
Overall minimum accepted flit rate = 0.765333 (1 samples)
Overall average accepted flit rate = 0.799707 (1 samples)
Overall maximum accepted flit rate = 0.828667 (1 samples)
Overall average injected packet size = 1 (1 samples)
Overall average accepted packet size = 1 (1 samples)
Overall average hops = 4.48458 (1 samples)
Total run time 142.24
