BEGIN Configuration File: ./FT3_1
injection_rate = 0.5;
traffic = bitrev;
use_size_power_of_two = yes;
routing_function = nca;
vc_buf_size = 16;
topology = fattree;
use_noc_latency = 0;
hold_switch_for_packet=0;

k = 10;
n = 3;

packet_size  = 1;
num_vcs      = 2;
vc_allocator = separable_input_first; 
sw_allocator = separable_input_first;

alloc_iters   = 1;
sample_period = 500;

wait_for_tail_credit = 0;
use_read_write       = 0;

credit_delay   = 2;
routing_delay  = 0;
vc_alloc_delay = 1;
sw_alloc_delay = 1;
st_final_delay = 1;

input_speedup     = 1;
output_speedup    = 1;
internal_speedup  = 2.0;

warmup_periods = 3;
sim_count      = 1;

priority = none;
injection_rate_uses_flits=1;

END Configuration File: ./FT3_1
Number of nodes: 1000
Number of routers: 300
Fat Tree
 k = 10 levels = 3
 each switch - total radix =  20
 # of switches = 300
 # of channels = 4000
 # of nodes ( size of network ) = 1000


Power of two: 512
#################################################################################
0
Class 0:
Minimum packet latency = 5
Average packet latency = 16.8471
Maximum packet latency = 29
Minimum network latency = 5
Average network latency = 16.8471
Maximum network latency = 29
Slowest packet = 1405
Minimum flit latency = 5
Average flit latency = 16.8471
Maximum flit latency = 29
Slowest flit = 1405
Minimum fragmentation = 0
Average fragmentation = 0
Maximum fragmentation = 0
Minimum injected packet rate = 0.44 (at node 3)
Average injected packet rate = 0.499969
Maximum injected packet rate = 0.56 (at node 469)
Minimum accepted packet rate = 0.424 (at node 384)
Average accepted packet rate = 0.48298
Maximum accepted packet rate = 0.538 (at node 68)
Minimum injected flit rate = 0.44 (at node 3)
Average injected flit rate = 0.499969
Maximum injected flit rate = 0.56 (at node 469)
Minimum accepted flit rate = 0.424 (at node 384)
Average accepted flit rate = 0.48298
Maximum accepted flit rate = 0.538 (at node 68)
Average injected packet length = 1
Average accepted packet length = 1
Total in-flight flits = 4349 (0 measured)
latency change    = 1
throughput change = 1
0
Class 0:
Minimum packet latency = 5
Average packet latency = 16.8704
Maximum packet latency = 29
Minimum network latency = 5
Average network latency = 16.8704
Maximum network latency = 29
Slowest packet = 1405
Minimum flit latency = 5
Average flit latency = 16.8704
Maximum flit latency = 29
Slowest flit = 1405
Minimum fragmentation = 0
Average fragmentation = 0
Maximum fragmentation = 0
Minimum injected packet rate = 0.456 (at node 3)
Average injected packet rate = 0.50033
Maximum injected packet rate = 0.538 (at node 75)
Minimum accepted packet rate = 0.447 (at node 384)
Average accepted packet rate = 0.491838
Maximum accepted packet rate = 0.532 (at node 170)
Minimum injected flit rate = 0.456 (at node 3)
Average injected flit rate = 0.50033
Maximum injected flit rate = 0.538 (at node 75)
Minimum accepted flit rate = 0.447 (at node 384)
Average accepted flit rate = 0.491838
Maximum accepted flit rate = 0.532 (at node 170)
Average injected packet length = 1
Average accepted packet length = 1
Total in-flight flits = 4348 (0 measured)
latency change    = 0.00138088
throughput change = 0.0180088
0
Class 0:
Minimum packet latency = 5
Average packet latency = 16.903
Maximum packet latency = 30
Minimum network latency = 5
Average network latency = 16.903
Maximum network latency = 30
Slowest packet = 313316
Minimum flit latency = 5
Average flit latency = 16.903
Maximum flit latency = 30
Slowest flit = 313316
Minimum fragmentation = 0
Average fragmentation = 0
Maximum fragmentation = 0
Minimum injected packet rate = 0.43 (at node 370)
Average injected packet rate = 0.500254
Maximum injected packet rate = 0.568 (at node 42)
Minimum accepted packet rate = 0.426 (at node 58)
Average accepted packet rate = 0.500184
Maximum accepted packet rate = 0.574 (at node 168)
Minimum injected flit rate = 0.43 (at node 370)
Average injected flit rate = 0.500254
Maximum injected flit rate = 0.568 (at node 42)
Minimum accepted flit rate = 0.426 (at node 58)
Average accepted flit rate = 0.500184
Maximum accepted flit rate = 0.574 (at node 168)
Average injected packet length = 1
Average accepted packet length = 1
Total in-flight flits = 4366 (0 measured)
latency change    = 0.00192868
throughput change = 0.0166853
Warmed up ...Time used is 1500 cycles
1
Class 0:
Minimum packet latency = 5
Average packet latency = 16.8645
Maximum packet latency = 30
Minimum network latency = 5
Average network latency = 16.8645
Maximum network latency = 30
Slowest packet = 406775
Minimum flit latency = 5
Average flit latency = 16.8988
Maximum flit latency = 30
Slowest flit = 406775
Minimum fragmentation = 0
Average fragmentation = 0
Maximum fragmentation = 0
Minimum injected packet rate = 0.438 (at node 193)
Average injected packet rate = 0.500387
Maximum injected packet rate = 0.57 (at node 110)
Minimum accepted packet rate = 0.44 (at node 262)
Average accepted packet rate = 0.500379
Maximum accepted packet rate = 0.57 (at node 236)
Minimum injected flit rate = 0.438 (at node 193)
Average injected flit rate = 0.500387
Maximum injected flit rate = 0.57 (at node 110)
Minimum accepted flit rate = 0.44 (at node 262)
Average accepted flit rate = 0.500379
Maximum accepted flit rate = 0.57 (at node 236)
Average injected packet length = 1
Average accepted packet length = 1
Total in-flight flits = 4368 (4368 measured)
latency change    = 0.00228532
throughput change = 0.000390329
1
Class 0:
Minimum packet latency = 5
Average packet latency = 16.8885
Maximum packet latency = 30
Minimum network latency = 5
Average network latency = 16.8885
Maximum network latency = 30
Slowest packet = 406775
Minimum flit latency = 5
Average flit latency = 16.9053
Maximum flit latency = 30
Slowest flit = 406775
Minimum fragmentation = 0
Average fragmentation = 0
Maximum fragmentation = 0
Minimum injected packet rate = 0.453 (at node 488)
Average injected packet rate = 0.499781
Maximum injected packet rate = 0.544 (at node 302)
Minimum accepted packet rate = 0.453 (at node 47)
Average accepted packet rate = 0.499775
Maximum accepted packet rate = 0.545 (at node 233)
Minimum injected flit rate = 0.453 (at node 488)
Average injected flit rate = 0.499781
Maximum injected flit rate = 0.544 (at node 302)
Minimum accepted flit rate = 0.453 (at node 47)
Average accepted flit rate = 0.499775
Maximum accepted flit rate = 0.545 (at node 233)
Average injected packet length = 1
Average accepted packet length = 1
Total in-flight flits = 4369 (4369 measured)
latency change    = 0.00142284
throughput change = 0.00120757
1
Class 0:
Minimum packet latency = 5
Average packet latency = 16.8864
Maximum packet latency = 30
Minimum network latency = 5
Average network latency = 16.8864
Maximum network latency = 30
Slowest packet = 406775
Minimum flit latency = 5
Average flit latency = 16.8977
Maximum flit latency = 30
Slowest flit = 406775
Minimum fragmentation = 0
Average fragmentation = 0
Maximum fragmentation = 0
Minimum injected packet rate = 0.46 (at node 125)
Average injected packet rate = 0.499389
Maximum injected packet rate = 0.546 (at node 441)
Minimum accepted packet rate = 0.460667 (at node 380)
Average accepted packet rate = 0.499448
Maximum accepted packet rate = 0.548667 (at node 315)
Minimum injected flit rate = 0.46 (at node 125)
Average injected flit rate = 0.499389
Maximum injected flit rate = 0.546 (at node 441)
Minimum accepted flit rate = 0.460667 (at node 380)
Average accepted flit rate = 0.499448
Maximum accepted flit rate = 0.548667 (at node 315)
Average injected packet length = 1
Average accepted packet length = 1
Total in-flight flits = 4321 (4321 measured)
latency change    = 0.000121591
throughput change = 0.000655672
Draining all recorded packets ...
Draining remaining packets ...
Time taken is 3050 cycles
====== Traffic class 0 ======
Overall minimum packet latency = 5 (1 samples)
Overall average packet latency = 16.898 (1 samples)
Overall maximum packet latency = 30 (1 samples)
Overall minimum network latency = 5 (1 samples)
Overall average network latency = 16.898 (1 samples)
Overall maximum network latency = 30 (1 samples)
Overall minimum flit latency = 5 (1 samples)
Overall average flit latency = 16.9086 (1 samples)
Overall maximum flit latency = 30 (1 samples)
Overall minimum fragmentation = 0 (1 samples)
Overall average fragmentation = 0 (1 samples)
Overall maximum fragmentation = 0 (1 samples)
Overall minimum injected packet rate = 0.46 (1 samples)
Overall average injected packet rate = 0.499389 (1 samples)
Overall maximum injected packet rate = 0.546 (1 samples)
Overall minimum accepted packet rate = 0.460667 (1 samples)
Overall average accepted packet rate = 0.499448 (1 samples)
Overall maximum accepted packet rate = 0.548667 (1 samples)
Overall minimum injected flit rate = 0.46 (1 samples)
Overall average injected flit rate = 0.499389 (1 samples)
Overall maximum injected flit rate = 0.546 (1 samples)
Overall minimum accepted flit rate = 0.460667 (1 samples)
Overall average accepted flit rate = 0.499448 (1 samples)
Overall maximum accepted flit rate = 0.548667 (1 samples)
Overall average injected packet size = 1 (1 samples)
Overall average accepted packet size = 1 (1 samples)
Overall average hops = 4.48371 (1 samples)
Total run time 90.2789
