BEGIN Configuration File: ./FT3
injection_rate = 0.8;
traffic = bitrev;
use_size_power_of_two = yes;
routing_function = anca;
vc_buf_size = 16;
topology = fattree;
use_noc_latency = 0;
hold_switch_for_packet=0;

k = 10;
n = 3;

packet_size  = 1;
num_vcs      = 2;
vc_allocator = separable_input_first; 
sw_allocator = separable_input_first;

alloc_iters   = 1;
sample_period = 500;

wait_for_tail_credit = 0;
use_read_write       = 0;

credit_delay   = 2;
routing_delay  = 0;
vc_alloc_delay = 1;
sw_alloc_delay = 1;
st_final_delay = 1;

input_speedup     = 1;
output_speedup    = 1;
internal_speedup  = 2.0;

warmup_periods = 3;
sim_count      = 1;

priority = none;
injection_rate_uses_flits=1;

END Configuration File: ./FT3
Number of nodes: 1000
Number of routers: 300
Fat Tree
 k = 10 levels = 3
 each switch - total radix =  20
 # of switches = 300
 # of channels = 4000
 # of nodes ( size of network ) = 1000


Power of two: 512
#################################################################################
0
Class 0:
Minimum packet latency = 5
Average packet latency = 20.4565
Maximum packet latency = 45
Minimum network latency = 5
Average network latency = 20.4565
Maximum network latency = 45
Slowest packet = 164736
Minimum flit latency = 5
Average flit latency = 20.4565
Maximum flit latency = 45
Slowest flit = 164736
Minimum fragmentation = 0
Average fragmentation = 0
Maximum fragmentation = 0
Minimum injected packet rate = 0.74 (at node 154)
Average injected packet rate = 0.79868
Maximum injected packet rate = 0.85 (at node 254)
Minimum accepted packet rate = 0.702 (at node 236)
Average accepted packet rate = 0.76591
Maximum accepted packet rate = 0.84 (at node 254)
Minimum injected flit rate = 0.74 (at node 154)
Average injected flit rate = 0.79868
Maximum injected flit rate = 0.85 (at node 254)
Minimum accepted flit rate = 0.702 (at node 236)
Average accepted flit rate = 0.76591
Maximum accepted flit rate = 0.84 (at node 254)
Average injected packet length = 1
Average accepted packet length = 1
Total in-flight flits = 8389 (0 measured)
latency change    = 1
throughput change = 1
0
Class 0:
Minimum packet latency = 5
Average packet latency = 20.5569
Maximum packet latency = 45
Minimum network latency = 5
Average network latency = 20.5569
Maximum network latency = 45
Slowest packet = 164736
Minimum flit latency = 5
Average flit latency = 20.5569
Maximum flit latency = 45
Slowest flit = 164736
Minimum fragmentation = 0
Average fragmentation = 0
Maximum fragmentation = 0
Minimum injected packet rate = 0.759 (at node 154)
Average injected packet rate = 0.799102
Maximum injected packet rate = 0.841 (at node 269)
Minimum accepted packet rate = 0.744 (at node 236)
Average accepted packet rate = 0.782537
Maximum accepted packet rate = 0.833 (at node 254)
Minimum injected flit rate = 0.759 (at node 154)
Average injected flit rate = 0.799102
Maximum injected flit rate = 0.841 (at node 269)
Minimum accepted flit rate = 0.744 (at node 236)
Average accepted flit rate = 0.782537
Maximum accepted flit rate = 0.833 (at node 254)
Average injected packet length = 1
Average accepted packet length = 1
Total in-flight flits = 8481 (0 measured)
latency change    = 0.00488234
throughput change = 0.0212475
0
Class 0:
Minimum packet latency = 5
Average packet latency = 20.6457
Maximum packet latency = 47
Minimum network latency = 5
Average network latency = 20.6457
Maximum network latency = 47
Slowest packet = 495426
Minimum flit latency = 5
Average flit latency = 20.6457
Maximum flit latency = 47
Slowest flit = 495426
Minimum fragmentation = 0
Average fragmentation = 0
Maximum fragmentation = 0
Minimum injected packet rate = 0.752 (at node 131)
Average injected packet rate = 0.798902
Maximum injected packet rate = 0.85 (at node 88)
Minimum accepted packet rate = 0.75 (at node 58)
Average accepted packet rate = 0.798996
Maximum accepted packet rate = 0.846 (at node 165)
Minimum injected flit rate = 0.752 (at node 131)
Average injected flit rate = 0.798902
Maximum injected flit rate = 0.85 (at node 88)
Minimum accepted flit rate = 0.75 (at node 58)
Average accepted flit rate = 0.798996
Maximum accepted flit rate = 0.846 (at node 165)
Average injected packet length = 1
Average accepted packet length = 1
Total in-flight flits = 8457 (0 measured)
latency change    = 0.00429938
throughput change = 0.0205996
Warmed up ...Time used is 1500 cycles
1
Class 0:
Minimum packet latency = 5
Average packet latency = 20.5277
Maximum packet latency = 50
Minimum network latency = 5
Average network latency = 20.5277
Maximum network latency = 50
Slowest packet = 619111
Minimum flit latency = 5
Average flit latency = 20.5942
Maximum flit latency = 50
Slowest flit = 619111
Minimum fragmentation = 0
Average fragmentation = 0
Maximum fragmentation = 0
Minimum injected packet rate = 0.748 (at node 409)
Average injected packet rate = 0.800156
Maximum injected packet rate = 0.856 (at node 110)
Minimum accepted packet rate = 0.75 (at node 307)
Average accepted packet rate = 0.799848
Maximum accepted packet rate = 0.854 (at node 7)
Minimum injected flit rate = 0.748 (at node 409)
Average injected flit rate = 0.800156
Maximum injected flit rate = 0.856 (at node 110)
Minimum accepted flit rate = 0.75 (at node 307)
Average accepted flit rate = 0.799848
Maximum accepted flit rate = 0.854 (at node 7)
Average injected packet length = 1
Average accepted packet length = 1
Total in-flight flits = 8536 (8536 measured)
latency change    = 0.00574845
throughput change = 0.00106466
1
Class 0:
Minimum packet latency = 5
Average packet latency = 20.5989
Maximum packet latency = 50
Minimum network latency = 5
Average network latency = 20.5989
Maximum network latency = 50
Slowest packet = 619111
Minimum flit latency = 5
Average flit latency = 20.6307
Maximum flit latency = 50
Slowest flit = 619111
Minimum fragmentation = 0
Average fragmentation = 0
Maximum fragmentation = 0
Minimum injected packet rate = 0.765 (at node 271)
Average injected packet rate = 0.800076
Maximum injected packet rate = 0.834 (at node 421)
Minimum accepted packet rate = 0.765 (at node 475)
Average accepted packet rate = 0.800148
Maximum accepted packet rate = 0.842 (at node 331)
Minimum injected flit rate = 0.765 (at node 271)
Average injected flit rate = 0.800076
Maximum injected flit rate = 0.834 (at node 421)
Minimum accepted flit rate = 0.765 (at node 475)
Average accepted flit rate = 0.800148
Maximum accepted flit rate = 0.842 (at node 331)
Average injected packet length = 1
Average accepted packet length = 1
Total in-flight flits = 8420 (8420 measured)
latency change    = 0.00345861
throughput change = 0.000375907
1
Class 0:
Minimum packet latency = 5
Average packet latency = 20.611
Maximum packet latency = 50
Minimum network latency = 5
Average network latency = 20.611
Maximum network latency = 50
Slowest packet = 619111
Minimum flit latency = 5
Average flit latency = 20.6321
Maximum flit latency = 50
Slowest flit = 619111
Minimum fragmentation = 0
Average fragmentation = 0
Maximum fragmentation = 0
Minimum injected packet rate = 0.763333 (at node 271)
Average injected packet rate = 0.799797
Maximum injected packet rate = 0.83 (at node 489)
Minimum accepted packet rate = 0.764667 (at node 481)
Average accepted packet rate = 0.799706
Maximum accepted packet rate = 0.828667 (at node 303)
Minimum injected flit rate = 0.763333 (at node 271)
Average injected flit rate = 0.799797
Maximum injected flit rate = 0.83 (at node 489)
Minimum accepted flit rate = 0.764667 (at node 481)
Average accepted flit rate = 0.799706
Maximum accepted flit rate = 0.828667 (at node 303)
Average injected packet length = 1
Average accepted packet length = 1
Total in-flight flits = 8527 (8527 measured)
latency change    = 0.000588823
throughput change = 0.000553589
Draining all recorded packets ...
Draining remaining packets ...
Time taken is 3067 cycles
====== Traffic class 0 ======
Overall minimum packet latency = 5 (1 samples)
Overall average packet latency = 20.6346 (1 samples)
Overall maximum packet latency = 50 (1 samples)
Overall minimum network latency = 5 (1 samples)
Overall average network latency = 20.6346 (1 samples)
Overall maximum network latency = 50 (1 samples)
Overall minimum flit latency = 5 (1 samples)
Overall average flit latency = 20.6522 (1 samples)
Overall maximum flit latency = 50 (1 samples)
Overall minimum fragmentation = 0 (1 samples)
Overall average fragmentation = 0 (1 samples)
Overall maximum fragmentation = 0 (1 samples)
Overall minimum injected packet rate = 0.763333 (1 samples)
Overall average injected packet rate = 0.799797 (1 samples)
Overall maximum injected packet rate = 0.83 (1 samples)
Overall minimum accepted packet rate = 0.764667 (1 samples)
Overall average accepted packet rate = 0.799706 (1 samples)
Overall maximum accepted packet rate = 0.828667 (1 samples)
Overall minimum injected flit rate = 0.763333 (1 samples)
Overall average injected flit rate = 0.799797 (1 samples)
Overall maximum injected flit rate = 0.83 (1 samples)
Overall minimum accepted flit rate = 0.764667 (1 samples)
Overall average accepted flit rate = 0.799706 (1 samples)
Overall maximum accepted flit rate = 0.828667 (1 samples)
Overall average injected packet size = 1 (1 samples)
Overall average accepted packet size = 1 (1 samples)
Overall average hops = 4.48458 (1 samples)
Total run time 132.179
