BEGIN Configuration File: ./FT3
injection_rate = 0.5;
traffic = bitrev;
use_size_power_of_two = yes;
routing_function = anca;
vc_buf_size = 16;
topology = fattree;
use_noc_latency = 0;
hold_switch_for_packet=0;

k = 10;
n = 3;

packet_size  = 1;
num_vcs      = 2;
vc_allocator = separable_input_first; 
sw_allocator = separable_input_first;

alloc_iters   = 1;
sample_period = 500;

wait_for_tail_credit = 0;
use_read_write       = 0;

credit_delay   = 2;
routing_delay  = 0;
vc_alloc_delay = 1;
sw_alloc_delay = 1;
st_final_delay = 1;

input_speedup     = 1;
output_speedup    = 1;
internal_speedup  = 2.0;

warmup_periods = 3;
sim_count      = 1;

priority = none;
injection_rate_uses_flits=1;

END Configuration File: ./FT3
Number of nodes: 1000
Number of routers: 300
Fat Tree
 k = 10 levels = 3
 each switch - total radix =  20
 # of switches = 300
 # of channels = 4000
 # of nodes ( size of network ) = 1000


Power of two: 512
#################################################################################
0
Class 0:
Minimum packet latency = 5
Average packet latency = 17.1558
Maximum packet latency = 32
Minimum network latency = 5
Average network latency = 17.1558
Maximum network latency = 32
Slowest packet = 42104
Minimum flit latency = 5
Average flit latency = 17.1558
Maximum flit latency = 32
Slowest flit = 42104
Minimum fragmentation = 0
Average fragmentation = 0
Maximum fragmentation = 0
Minimum injected packet rate = 0.44 (at node 3)
Average injected packet rate = 0.499969
Maximum injected packet rate = 0.56 (at node 469)
Minimum accepted packet rate = 0.424 (at node 184)
Average accepted packet rate = 0.482555
Maximum accepted packet rate = 0.538 (at node 68)
Minimum injected flit rate = 0.44 (at node 3)
Average injected flit rate = 0.499969
Maximum injected flit rate = 0.56 (at node 469)
Minimum accepted flit rate = 0.424 (at node 184)
Average accepted flit rate = 0.482555
Maximum accepted flit rate = 0.538 (at node 68)
Average injected packet length = 1
Average accepted packet length = 1
Total in-flight flits = 4458 (0 measured)
latency change    = 1
throughput change = 1
0
Class 0:
Minimum packet latency = 5
Average packet latency = 17.1795
Maximum packet latency = 32
Minimum network latency = 5
Average network latency = 17.1795
Maximum network latency = 32
Slowest packet = 42104
Minimum flit latency = 5
Average flit latency = 17.1795
Maximum flit latency = 32
Slowest flit = 42104
Minimum fragmentation = 0
Average fragmentation = 0
Maximum fragmentation = 0
Minimum injected packet rate = 0.456 (at node 3)
Average injected packet rate = 0.50033
Maximum injected packet rate = 0.538 (at node 75)
Minimum accepted packet rate = 0.446 (at node 384)
Average accepted packet rate = 0.491701
Maximum accepted packet rate = 0.532 (at node 170)
Minimum injected flit rate = 0.456 (at node 3)
Average injected flit rate = 0.50033
Maximum injected flit rate = 0.538 (at node 75)
Minimum accepted flit rate = 0.446 (at node 384)
Average accepted flit rate = 0.491701
Maximum accepted flit rate = 0.532 (at node 170)
Average injected packet length = 1
Average accepted packet length = 1
Total in-flight flits = 4418 (0 measured)
latency change    = 0.0013786
throughput change = 0.0186017
0
Class 0:
Minimum packet latency = 5
Average packet latency = 17.2195
Maximum packet latency = 32
Minimum network latency = 5
Average network latency = 17.2195
Maximum network latency = 32
Slowest packet = 303707
Minimum flit latency = 5
Average flit latency = 17.2195
Maximum flit latency = 32
Slowest flit = 303707
Minimum fragmentation = 0
Average fragmentation = 0
Maximum fragmentation = 0
Minimum injected packet rate = 0.43 (at node 370)
Average injected packet rate = 0.500254
Maximum injected packet rate = 0.568 (at node 42)
Minimum accepted packet rate = 0.426 (at node 58)
Average accepted packet rate = 0.49998
Maximum accepted packet rate = 0.574 (at node 168)
Minimum injected flit rate = 0.43 (at node 370)
Average injected flit rate = 0.500254
Maximum injected flit rate = 0.568 (at node 42)
Minimum accepted flit rate = 0.426 (at node 58)
Average accepted flit rate = 0.49998
Maximum accepted flit rate = 0.574 (at node 168)
Average injected packet length = 1
Average accepted packet length = 1
Total in-flight flits = 4488 (0 measured)
latency change    = 0.0023224
throughput change = 0.0165592
Warmed up ...Time used is 1500 cycles
1
Class 0:
Minimum packet latency = 5
Average packet latency = 17.1712
Maximum packet latency = 35
Minimum network latency = 5
Average network latency = 17.1712
Maximum network latency = 35
Slowest packet = 425536
Minimum flit latency = 5
Average flit latency = 17.2093
Maximum flit latency = 35
Slowest flit = 425536
Minimum fragmentation = 0
Average fragmentation = 0
Maximum fragmentation = 0
Minimum injected packet rate = 0.438 (at node 193)
Average injected packet rate = 0.500387
Maximum injected packet rate = 0.57 (at node 110)
Minimum accepted packet rate = 0.436 (at node 260)
Average accepted packet rate = 0.500586
Maximum accepted packet rate = 0.572 (at node 236)
Minimum injected flit rate = 0.438 (at node 193)
Average injected flit rate = 0.500387
Maximum injected flit rate = 0.57 (at node 110)
Minimum accepted flit rate = 0.436 (at node 260)
Average accepted flit rate = 0.500586
Maximum accepted flit rate = 0.572 (at node 236)
Average injected packet length = 1
Average accepted packet length = 1
Total in-flight flits = 4437 (4437 measured)
latency change    = 0.0028115
throughput change = 0.00120952
1
Class 0:
Minimum packet latency = 5
Average packet latency = 17.1928
Maximum packet latency = 35
Minimum network latency = 5
Average network latency = 17.1928
Maximum network latency = 35
Slowest packet = 425536
Minimum flit latency = 5
Average flit latency = 17.2115
Maximum flit latency = 35
Slowest flit = 425536
Minimum fragmentation = 0
Average fragmentation = 0
Maximum fragmentation = 0
Minimum injected packet rate = 0.453 (at node 488)
Average injected packet rate = 0.499781
Maximum injected packet rate = 0.544 (at node 302)
Minimum accepted packet rate = 0.455 (at node 47)
Average accepted packet rate = 0.499877
Maximum accepted packet rate = 0.544 (at node 233)
Minimum injected flit rate = 0.453 (at node 488)
Average injected flit rate = 0.499781
Maximum injected flit rate = 0.544 (at node 302)
Minimum accepted flit rate = 0.455 (at node 47)
Average accepted flit rate = 0.499877
Maximum accepted flit rate = 0.544 (at node 233)
Average injected packet length = 1
Average accepted packet length = 1
Total in-flight flits = 4439 (4439 measured)
latency change    = 0.00125576
throughput change = 0.00141832
1
Class 0:
Minimum packet latency = 5
Average packet latency = 17.1976
Maximum packet latency = 35
Minimum network latency = 5
Average network latency = 17.1976
Maximum network latency = 35
Slowest packet = 425536
Minimum flit latency = 5
Average flit latency = 17.21
Maximum flit latency = 35
Slowest flit = 425536
Minimum fragmentation = 0
Average fragmentation = 0
Maximum fragmentation = 0
Minimum injected packet rate = 0.46 (at node 125)
Average injected packet rate = 0.499389
Maximum injected packet rate = 0.546 (at node 441)
Minimum accepted packet rate = 0.460667 (at node 380)
Average accepted packet rate = 0.499469
Maximum accepted packet rate = 0.548667 (at node 315)
Minimum injected flit rate = 0.46 (at node 125)
Average injected flit rate = 0.499389
Maximum injected flit rate = 0.546 (at node 441)
Minimum accepted flit rate = 0.460667 (at node 380)
Average accepted flit rate = 0.499469
Maximum accepted flit rate = 0.548667 (at node 315)
Average injected packet length = 1
Average accepted packet length = 1
Total in-flight flits = 4427 (4427 measured)
latency change    = 0.000277364
throughput change = 0.000817275
Draining all recorded packets ...
Draining remaining packets ...
Time taken is 3055 cycles
====== Traffic class 0 ======
Overall minimum packet latency = 5 (1 samples)
Overall average packet latency = 17.2094 (1 samples)
Overall maximum packet latency = 35 (1 samples)
Overall minimum network latency = 5 (1 samples)
Overall average network latency = 17.2094 (1 samples)
Overall maximum network latency = 35 (1 samples)
Overall minimum flit latency = 5 (1 samples)
Overall average flit latency = 17.2198 (1 samples)
Overall maximum flit latency = 35 (1 samples)
Overall minimum fragmentation = 0 (1 samples)
Overall average fragmentation = 0 (1 samples)
Overall maximum fragmentation = 0 (1 samples)
Overall minimum injected packet rate = 0.46 (1 samples)
Overall average injected packet rate = 0.499389 (1 samples)
Overall maximum injected packet rate = 0.546 (1 samples)
Overall minimum accepted packet rate = 0.460667 (1 samples)
Overall average accepted packet rate = 0.499469 (1 samples)
Overall maximum accepted packet rate = 0.548667 (1 samples)
Overall minimum injected flit rate = 0.46 (1 samples)
Overall average injected flit rate = 0.499389 (1 samples)
Overall maximum injected flit rate = 0.546 (1 samples)
Overall minimum accepted flit rate = 0.460667 (1 samples)
Overall average accepted flit rate = 0.499469 (1 samples)
Overall maximum accepted flit rate = 0.548667 (1 samples)
Overall average injected packet size = 1 (1 samples)
Overall average accepted packet size = 1 (1 samples)
Overall average hops = 4.48371 (1 samples)
Total run time 82.3244
