BEGIN Configuration File: ./FT3_1
injection_rate = 0.95;
traffic = bitrev;
use_size_power_of_two = yes;
routing_function = nca;
vc_buf_size = 16;
topology = fattree;
use_noc_latency = 0;
hold_switch_for_packet=0;

k = 10;
n = 3;

packet_size  = 1;
num_vcs      = 2;
vc_allocator = separable_input_first; 
sw_allocator = separable_input_first;

alloc_iters   = 1;
sample_period = 500;

wait_for_tail_credit = 0;
use_read_write       = 0;

credit_delay   = 2;
routing_delay  = 0;
vc_alloc_delay = 1;
sw_alloc_delay = 1;
st_final_delay = 1;

input_speedup     = 1;
output_speedup    = 1;
internal_speedup  = 2.0;

warmup_periods = 3;
sim_count      = 1;

priority = none;
injection_rate_uses_flits=1;

END Configuration File: ./FT3_1
Number of nodes: 1000
Number of routers: 300
Fat Tree
 k = 10 levels = 3
 each switch - total radix =  20
 # of switches = 300
 # of channels = 4000
 # of nodes ( size of network ) = 1000


Power of two: 512
#################################################################################
0
Class 0:
Minimum packet latency = 5
Average packet latency = 26.8017
Maximum packet latency = 100
Minimum network latency = 5
Average network latency = 26.8017
Maximum network latency = 100
Slowest packet = 80016
Minimum flit latency = 5
Average flit latency = 26.8017
Maximum flit latency = 100
Slowest flit = 80016
Minimum fragmentation = 0
Average fragmentation = 0
Maximum fragmentation = 0
Minimum injected packet rate = 0.918 (at node 413)
Average injected packet rate = 0.949828
Maximum injected packet rate = 0.978 (at node 253)
Minimum accepted packet rate = 0.842 (at node 371)
Average accepted packet rate = 0.894824
Maximum accepted packet rate = 0.96 (at node 403)
Minimum injected flit rate = 0.918 (at node 413)
Average injected flit rate = 0.949828
Maximum injected flit rate = 0.978 (at node 253)
Minimum accepted flit rate = 0.842 (at node 371)
Average accepted flit rate = 0.894824
Maximum accepted flit rate = 0.96 (at node 403)
Average injected packet length = 1
Average accepted packet length = 1
Total in-flight flits = 14081 (0 measured)
latency change    = 1
throughput change = 1
0
Class 0:
Minimum packet latency = 5
Average packet latency = 28.8496
Maximum packet latency = 175
Minimum network latency = 5
Average network latency = 28.8343
Maximum network latency = 157
Slowest packet = 378817
Minimum flit latency = 5
Average flit latency = 28.8343
Maximum flit latency = 157
Slowest flit = 378817
Minimum fragmentation = 0
Average fragmentation = 0
Maximum fragmentation = 0
Minimum injected packet rate = 0.89 (at node 487)
Average injected packet rate = 0.949691
Maximum injected packet rate = 0.97 (at node 132)
Minimum accepted packet rate = 0.839 (at node 463)
Average accepted packet rate = 0.918695
Maximum accepted packet rate = 0.959 (at node 108)
Minimum injected flit rate = 0.89 (at node 487)
Average injected flit rate = 0.949691
Maximum injected flit rate = 0.97 (at node 132)
Minimum accepted flit rate = 0.839 (at node 463)
Average accepted flit rate = 0.918695
Maximum accepted flit rate = 0.959 (at node 108)
Average injected packet length = 1
Average accepted packet length = 1
Total in-flight flits = 15872 (0 measured)
latency change    = 0.070983
throughput change = 0.0259837
0
Class 0:
Minimum packet latency = 5
Average packet latency = 35.4992
Maximum packet latency = 298
Minimum network latency = 5
Average network latency = 34.322
Maximum network latency = 199
Slowest packet = 423615
Minimum flit latency = 5
Average flit latency = 34.322
Maximum flit latency = 199
Slowest flit = 596601
Minimum fragmentation = 0
Average fragmentation = 0
Maximum fragmentation = 0
Minimum injected packet rate = 0.772 (at node 487)
Average injected packet rate = 0.944727
Maximum injected packet rate = 0.976 (at node 436)
Minimum accepted packet rate = 0.766 (at node 47)
Average accepted packet rate = 0.940227
Maximum accepted packet rate = 0.99 (at node 99)
Minimum injected flit rate = 0.772 (at node 487)
Average injected flit rate = 0.944727
Maximum injected flit rate = 0.976 (at node 436)
Minimum accepted flit rate = 0.766 (at node 47)
Average accepted flit rate = 0.940227
Maximum accepted flit rate = 0.99 (at node 99)
Average injected packet length = 1
Average accepted packet length = 1
Total in-flight flits = 17026 (0 measured)
latency change    = 0.187318
throughput change = 0.0229001
Warmed up ...Time used is 1500 cycles
1
Class 0:
Minimum packet latency = 5
Average packet latency = 38.177
Maximum packet latency = 284
Minimum network latency = 5
Average network latency = 35.2749
Maximum network latency = 183
Slowest packet = 728415
Minimum flit latency = 5
Average flit latency = 35.8659
Maximum flit latency = 183
Slowest flit = 814202
Minimum fragmentation = 0
Average fragmentation = 0
Maximum fragmentation = 0
Minimum injected packet rate = 0.872 (at node 481)
Average injected packet rate = 0.949273
Maximum injected packet rate = 0.998 (at node 111)
Minimum accepted packet rate = 0.862 (at node 485)
Average accepted packet rate = 0.945754
Maximum accepted packet rate = 1 (at node 284)
Minimum injected flit rate = 0.872 (at node 481)
Average injected flit rate = 0.949273
Maximum injected flit rate = 0.998 (at node 111)
Minimum accepted flit rate = 0.862 (at node 485)
Average accepted flit rate = 0.945754
Maximum accepted flit rate = 1 (at node 284)
Average injected packet length = 1
Average accepted packet length = 1
Total in-flight flits = 17933 (17933 measured)
latency change    = 0.0701407
throughput change = 0.00584438
1
Class 0:
Minimum packet latency = 5
Average packet latency = 41.7985
Maximum packet latency = 320
Minimum network latency = 5
Average network latency = 37.7362
Maximum network latency = 209
Slowest packet = 728415
Minimum flit latency = 5
Average flit latency = 37.9467
Maximum flit latency = 209
Slowest flit = 1072952
Minimum fragmentation = 0
Average fragmentation = 0
Maximum fragmentation = 0
Minimum injected packet rate = 0.843 (at node 485)
Average injected packet rate = 0.945123
Maximum injected packet rate = 0.979 (at node 247)
Minimum accepted packet rate = 0.829 (at node 372)
Average accepted packet rate = 0.938771
Maximum accepted packet rate = 0.971 (at node 492)
Minimum injected flit rate = 0.843 (at node 485)
Average injected flit rate = 0.945123
Maximum injected flit rate = 0.979 (at node 247)
Minimum accepted flit rate = 0.829 (at node 372)
Average accepted flit rate = 0.938771
Maximum accepted flit rate = 0.971 (at node 492)
Average injected packet length = 1
Average accepted packet length = 1
Total in-flight flits = 20288 (20288 measured)
latency change    = 0.086644
throughput change = 0.00743783
1
Class 0:
Minimum packet latency = 5
Average packet latency = 44.8645
Maximum packet latency = 321
Minimum network latency = 5
Average network latency = 39.2444
Maximum network latency = 212
Slowest packet = 728415
Minimum flit latency = 5
Average flit latency = 39.3488
Maximum flit latency = 212
Slowest flit = 1114451
Minimum fragmentation = 0
Average fragmentation = 0
Maximum fragmentation = 0
Minimum injected packet rate = 0.870667 (at node 93)
Average injected packet rate = 0.945995
Maximum injected packet rate = 0.978 (at node 489)
Minimum accepted packet rate = 0.848667 (at node 372)
Average accepted packet rate = 0.941591
Maximum accepted packet rate = 0.976 (at node 210)
Minimum injected flit rate = 0.870667 (at node 93)
Average injected flit rate = 0.945995
Maximum injected flit rate = 0.978 (at node 489)
Minimum accepted flit rate = 0.848667 (at node 372)
Average accepted flit rate = 0.941591
Maximum accepted flit rate = 0.976 (at node 210)
Average injected packet length = 1
Average accepted packet length = 1
Total in-flight flits = 20411 (20411 measured)
latency change    = 0.0683383
throughput change = 0.00299457
1
Class 0:
Minimum packet latency = 5
Average packet latency = 46.5741
Maximum packet latency = 321
Minimum network latency = 5
Average network latency = 40.0009
Maximum network latency = 212
Slowest packet = 728415
Minimum flit latency = 5
Average flit latency = 40.0657
Maximum flit latency = 212
Slowest flit = 1114451
Minimum fragmentation = 0
Average fragmentation = 0
Maximum fragmentation = 0
Minimum injected packet rate = 0.8785 (at node 265)
Average injected packet rate = 0.946556
Maximum injected packet rate = 0.976 (at node 489)
Minimum accepted packet rate = 0.8705 (at node 289)
Average accepted packet rate = 0.942986
Maximum accepted packet rate = 0.98 (at node 467)
Minimum injected flit rate = 0.8785 (at node 265)
Average injected flit rate = 0.946556
Maximum injected flit rate = 0.976 (at node 489)
Minimum accepted flit rate = 0.8705 (at node 289)
Average accepted flit rate = 0.942986
Maximum accepted flit rate = 0.98 (at node 467)
Average injected packet length = 1
Average accepted packet length = 1
Total in-flight flits = 20687 (20687 measured)
latency change    = 0.0367062
throughput change = 0.00147954
1
Class 0:
Minimum packet latency = 5
Average packet latency = 47.8601
Maximum packet latency = 333
Minimum network latency = 5
Average network latency = 40.4806
Maximum network latency = 212
Slowest packet = 728415
Minimum flit latency = 5
Average flit latency = 40.5257
Maximum flit latency = 212
Slowest flit = 1114451
Minimum fragmentation = 0
Average fragmentation = 0
Maximum fragmentation = 0
Minimum injected packet rate = 0.8884 (at node 93)
Average injected packet rate = 0.946417
Maximum injected packet rate = 0.9708 (at node 489)
Minimum accepted packet rate = 0.8796 (at node 372)
Average accepted packet rate = 0.943515
Maximum accepted packet rate = 0.9732 (at node 467)
Minimum injected flit rate = 0.8884 (at node 93)
Average injected flit rate = 0.946417
Maximum injected flit rate = 0.9708 (at node 489)
Minimum accepted flit rate = 0.8796 (at node 372)
Average accepted flit rate = 0.943515
Maximum accepted flit rate = 0.9732 (at node 467)
Average injected packet length = 1
Average accepted packet length = 1
Total in-flight flits = 20746 (20746 measured)
latency change    = 0.0268707
throughput change = 0.000560156
1
Class 0:
Minimum packet latency = 5
Average packet latency = 49.3107
Maximum packet latency = 352
Minimum network latency = 5
Average network latency = 40.7619
Maximum network latency = 213
Slowest packet = 728415
Minimum flit latency = 5
Average flit latency = 40.7962
Maximum flit latency = 213
Slowest flit = 1842529
Minimum fragmentation = 0
Average fragmentation = 0
Maximum fragmentation = 0
Minimum injected packet rate = 0.893333 (at node 97)
Average injected packet rate = 0.945619
Maximum injected packet rate = 0.961333 (at node 489)
Minimum accepted packet rate = 0.885 (at node 268)
Average accepted packet rate = 0.943781
Maximum accepted packet rate = 0.968667 (at node 467)
Minimum injected flit rate = 0.893333 (at node 97)
Average injected flit rate = 0.945619
Maximum injected flit rate = 0.961333 (at node 489)
Minimum accepted flit rate = 0.885 (at node 268)
Average accepted flit rate = 0.943781
Maximum accepted flit rate = 0.968667 (at node 467)
Average injected packet length = 1
Average accepted packet length = 1
Total in-flight flits = 19858 (19858 measured)
latency change    = 0.0294175
throughput change = 0.000282275
Draining all recorded packets ...
Draining remaining packets ...
Time taken is 4934 cycles
====== Traffic class 0 ======
Overall minimum packet latency = 5 (1 samples)
Overall average packet latency = 50.2662 (1 samples)
Overall maximum packet latency = 381 (1 samples)
Overall minimum network latency = 5 (1 samples)
Overall average network latency = 41.0271 (1 samples)
Overall maximum network latency = 213 (1 samples)
Overall minimum flit latency = 5 (1 samples)
Overall average flit latency = 41.0251 (1 samples)
Overall maximum flit latency = 213 (1 samples)
Overall minimum fragmentation = 0 (1 samples)
Overall average fragmentation = 0 (1 samples)
Overall maximum fragmentation = 0 (1 samples)
Overall minimum injected packet rate = 0.893333 (1 samples)
Overall average injected packet rate = 0.945619 (1 samples)
Overall maximum injected packet rate = 0.961333 (1 samples)
Overall minimum accepted packet rate = 0.885 (1 samples)
Overall average accepted packet rate = 0.943781 (1 samples)
Overall maximum accepted packet rate = 0.968667 (1 samples)
Overall minimum injected flit rate = 0.893333 (1 samples)
Overall average injected flit rate = 0.945619 (1 samples)
Overall maximum injected flit rate = 0.961333 (1 samples)
Overall minimum accepted flit rate = 0.885 (1 samples)
Overall average accepted flit rate = 0.943781 (1 samples)
Overall maximum accepted flit rate = 0.968667 (1 samples)
Overall average injected packet size = 1 (1 samples)
Overall average accepted packet size = 1 (1 samples)
Overall average hops = 4.48441 (1 samples)
Total run time 252.518
