BEGIN Configuration File: ./FT3
injection_rate = 0.4;
traffic = bitrev;
use_size_power_of_two = yes;
routing_function = anca;
vc_buf_size = 16;
topology = fattree;
use_noc_latency = 0;
hold_switch_for_packet=0;

k = 10;
n = 3;

packet_size  = 1;
num_vcs      = 2;
vc_allocator = separable_input_first; 
sw_allocator = separable_input_first;

alloc_iters   = 1;
sample_period = 500;

wait_for_tail_credit = 0;
use_read_write       = 0;

credit_delay   = 2;
routing_delay  = 0;
vc_alloc_delay = 1;
sw_alloc_delay = 1;
st_final_delay = 1;

input_speedup     = 1;
output_speedup    = 1;
internal_speedup  = 2.0;

warmup_periods = 3;
sim_count      = 1;

priority = none;
injection_rate_uses_flits=1;

END Configuration File: ./FT3
Number of nodes: 1000
Number of routers: 300
Fat Tree
 k = 10 levels = 3
 each switch - total radix =  20
 # of switches = 300
 # of channels = 4000
 # of nodes ( size of network ) = 1000


Power of two: 512
#################################################################################
0
Class 0:
Minimum packet latency = 5
Average packet latency = 16.5997
Maximum packet latency = 28
Minimum network latency = 5
Average network latency = 16.5997
Maximum network latency = 28
Slowest packet = 42289
Minimum flit latency = 5
Average flit latency = 16.5997
Maximum flit latency = 28
Slowest flit = 42289
Minimum fragmentation = 0
Average fragmentation = 0
Maximum fragmentation = 0
Minimum injected packet rate = 0.336 (at node 231)
Average injected packet rate = 0.399004
Maximum injected packet rate = 0.468 (at node 330)
Minimum accepted packet rate = 0.324 (at node 462)
Average accepted packet rate = 0.385445
Maximum accepted packet rate = 0.452 (at node 165)
Minimum injected flit rate = 0.336 (at node 231)
Average injected flit rate = 0.399004
Maximum injected flit rate = 0.468 (at node 330)
Minimum accepted flit rate = 0.324 (at node 462)
Average accepted flit rate = 0.385445
Maximum accepted flit rate = 0.452 (at node 165)
Average injected packet length = 1
Average accepted packet length = 1
Total in-flight flits = 3471 (0 measured)
latency change    = 1
throughput change = 1
0
Class 0:
Minimum packet latency = 5
Average packet latency = 16.6161
Maximum packet latency = 28
Minimum network latency = 5
Average network latency = 16.6161
Maximum network latency = 28
Slowest packet = 42289
Minimum flit latency = 5
Average flit latency = 16.6161
Maximum flit latency = 28
Slowest flit = 42289
Minimum fragmentation = 0
Average fragmentation = 0
Maximum fragmentation = 0
Minimum injected packet rate = 0.357 (at node 85)
Average injected packet rate = 0.399568
Maximum injected packet rate = 0.444 (at node 330)
Minimum accepted packet rate = 0.35 (at node 340)
Average accepted packet rate = 0.392809
Maximum accepted packet rate = 0.435 (at node 165)
Minimum injected flit rate = 0.357 (at node 85)
Average injected flit rate = 0.399568
Maximum injected flit rate = 0.444 (at node 330)
Minimum accepted flit rate = 0.35 (at node 340)
Average accepted flit rate = 0.392809
Maximum accepted flit rate = 0.435 (at node 165)
Average injected packet length = 1
Average accepted packet length = 1
Total in-flight flits = 3461 (0 measured)
latency change    = 0.000985388
throughput change = 0.0187452
0
Class 0:
Minimum packet latency = 5
Average packet latency = 16.6595
Maximum packet latency = 28
Minimum network latency = 5
Average network latency = 16.6595
Maximum network latency = 28
Slowest packet = 224913
Minimum flit latency = 5
Average flit latency = 16.6595
Maximum flit latency = 28
Slowest flit = 224913
Minimum fragmentation = 0
Average fragmentation = 0
Maximum fragmentation = 0
Minimum injected packet rate = 0.334 (at node 184)
Average injected packet rate = 0.399816
Maximum injected packet rate = 0.468 (at node 348)
Minimum accepted packet rate = 0.334 (at node 58)
Average accepted packet rate = 0.399645
Maximum accepted packet rate = 0.47 (at node 117)
Minimum injected flit rate = 0.334 (at node 184)
Average injected flit rate = 0.399816
Maximum injected flit rate = 0.468 (at node 348)
Minimum accepted flit rate = 0.334 (at node 58)
Average accepted flit rate = 0.399645
Maximum accepted flit rate = 0.47 (at node 117)
Average injected packet length = 1
Average accepted packet length = 1
Total in-flight flits = 3505 (0 measured)
latency change    = 0.00260663
throughput change = 0.017105
Warmed up ...Time used is 1500 cycles
1
Class 0:
Minimum packet latency = 5
Average packet latency = 16.6041
Maximum packet latency = 28
Minimum network latency = 5
Average network latency = 16.6041
Maximum network latency = 28
Slowest packet = 350932
Minimum flit latency = 5
Average flit latency = 16.6406
Maximum flit latency = 28
Slowest flit = 306173
Minimum fragmentation = 0
Average fragmentation = 0
Maximum fragmentation = 0
Minimum injected packet rate = 0.326 (at node 150)
Average injected packet rate = 0.399703
Maximum injected packet rate = 0.466 (at node 241)
Minimum accepted packet rate = 0.32 (at node 210)
Average accepted packet rate = 0.400016
Maximum accepted packet rate = 0.462 (at node 234)
Minimum injected flit rate = 0.326 (at node 150)
Average injected flit rate = 0.399703
Maximum injected flit rate = 0.466 (at node 241)
Minimum accepted flit rate = 0.32 (at node 210)
Average accepted flit rate = 0.400016
Maximum accepted flit rate = 0.462 (at node 234)
Average injected packet length = 1
Average accepted packet length = 1
Total in-flight flits = 3425 (3425 measured)
latency change    = 0.00333771
throughput change = 0.000927698
1
Class 0:
Minimum packet latency = 5
Average packet latency = 16.6327
Maximum packet latency = 30
Minimum network latency = 5
Average network latency = 16.6327
Maximum network latency = 30
Slowest packet = 412918
Minimum flit latency = 5
Average flit latency = 16.6505
Maximum flit latency = 30
Slowest flit = 412918
Minimum fragmentation = 0
Average fragmentation = 0
Maximum fragmentation = 0
Minimum injected packet rate = 0.355 (at node 242)
Average injected packet rate = 0.399504
Maximum injected packet rate = 0.449 (at node 241)
Minimum accepted packet rate = 0.354 (at node 158)
Average accepted packet rate = 0.399705
Maximum accepted packet rate = 0.446 (at node 286)
Minimum injected flit rate = 0.355 (at node 242)
Average injected flit rate = 0.399504
Maximum injected flit rate = 0.449 (at node 241)
Minimum accepted flit rate = 0.354 (at node 158)
Average accepted flit rate = 0.399705
Maximum accepted flit rate = 0.446 (at node 286)
Average injected packet length = 1
Average accepted packet length = 1
Total in-flight flits = 3402 (3402 measured)
latency change    = 0.00171947
throughput change = 0.00077694
1
Class 0:
Minimum packet latency = 5
Average packet latency = 16.634
Maximum packet latency = 30
Minimum network latency = 5
Average network latency = 16.634
Maximum network latency = 30
Slowest packet = 412918
Minimum flit latency = 5
Average flit latency = 16.6458
Maximum flit latency = 30
Slowest flit = 412918
Minimum fragmentation = 0
Average fragmentation = 0
Maximum fragmentation = 0
Minimum injected packet rate = 0.361333 (at node 14)
Average injected packet rate = 0.399327
Maximum injected packet rate = 0.44 (at node 35)
Minimum accepted packet rate = 0.362 (at node 270)
Average accepted packet rate = 0.399428
Maximum accepted packet rate = 0.44 (at node 315)
Minimum injected flit rate = 0.361333 (at node 14)
Average injected flit rate = 0.399327
Maximum injected flit rate = 0.44 (at node 35)
Minimum accepted flit rate = 0.362 (at node 270)
Average accepted flit rate = 0.399428
Maximum accepted flit rate = 0.44 (at node 315)
Average injected packet length = 1
Average accepted packet length = 1
Total in-flight flits = 3427 (3427 measured)
latency change    = 7.60474e-05
throughput change = 0.000692722
Draining all recorded packets ...
Draining remaining packets ...
Time taken is 3052 cycles
====== Traffic class 0 ======
Overall minimum packet latency = 5 (1 samples)
Overall average packet latency = 16.6448 (1 samples)
Overall maximum packet latency = 30 (1 samples)
Overall minimum network latency = 5 (1 samples)
Overall average network latency = 16.6448 (1 samples)
Overall maximum network latency = 30 (1 samples)
Overall minimum flit latency = 5 (1 samples)
Overall average flit latency = 16.6555 (1 samples)
Overall maximum flit latency = 30 (1 samples)
Overall minimum fragmentation = 0 (1 samples)
Overall average fragmentation = 0 (1 samples)
Overall maximum fragmentation = 0 (1 samples)
Overall minimum injected packet rate = 0.361333 (1 samples)
Overall average injected packet rate = 0.399327 (1 samples)
Overall maximum injected packet rate = 0.44 (1 samples)
Overall minimum accepted packet rate = 0.362 (1 samples)
Overall average accepted packet rate = 0.399428 (1 samples)
Overall maximum accepted packet rate = 0.44 (1 samples)
Overall minimum injected flit rate = 0.361333 (1 samples)
Overall average injected flit rate = 0.399327 (1 samples)
Overall maximum injected flit rate = 0.44 (1 samples)
Overall minimum accepted flit rate = 0.362 (1 samples)
Overall average accepted flit rate = 0.399428 (1 samples)
Overall maximum accepted flit rate = 0.44 (1 samples)
Overall average injected packet size = 1 (1 samples)
Overall average accepted packet size = 1 (1 samples)
Overall average hops = 4.48351 (1 samples)
Total run time 63.9108
