BEGIN Configuration File: ./FT3
injection_rate = 0.9;
traffic = bitrev;
use_size_power_of_two = yes;
routing_function = anca;
vc_buf_size = 16;
topology = fattree;
use_noc_latency = 0;
hold_switch_for_packet=0;

k = 10;
n = 3;

packet_size  = 1;
num_vcs      = 2;
vc_allocator = separable_input_first; 
sw_allocator = separable_input_first;

alloc_iters   = 1;
sample_period = 500;

wait_for_tail_credit = 0;
use_read_write       = 0;

credit_delay   = 2;
routing_delay  = 0;
vc_alloc_delay = 1;
sw_alloc_delay = 1;
st_final_delay = 1;

input_speedup     = 1;
output_speedup    = 1;
internal_speedup  = 2.0;

warmup_periods = 3;
sim_count      = 1;

priority = none;
injection_rate_uses_flits=1;

END Configuration File: ./FT3
Number of nodes: 1000
Number of routers: 300
Fat Tree
 k = 10 levels = 3
 each switch - total radix =  20
 # of switches = 300
 # of channels = 4000
 # of nodes ( size of network ) = 1000


Power of two: 512
#################################################################################
0
Class 0:
Minimum packet latency = 5
Average packet latency = 23.3507
Maximum packet latency = 59
Minimum network latency = 5
Average network latency = 23.3507
Maximum network latency = 59
Slowest packet = 188859
Minimum flit latency = 5
Average flit latency = 23.3507
Maximum flit latency = 59
Slowest flit = 188859
Minimum fragmentation = 0
Average fragmentation = 0
Maximum fragmentation = 0
Minimum injected packet rate = 0.86 (at node 110)
Average injected packet rate = 0.899863
Maximum injected packet rate = 0.934 (at node 501)
Minimum accepted packet rate = 0.812 (at node 371)
Average accepted packet rate = 0.857219
Maximum accepted packet rate = 0.912 (at node 254)
Minimum injected flit rate = 0.86 (at node 110)
Average injected flit rate = 0.899863
Maximum injected flit rate = 0.934 (at node 501)
Minimum accepted flit rate = 0.812 (at node 371)
Average accepted flit rate = 0.857219
Maximum accepted flit rate = 0.912 (at node 254)
Average injected packet length = 1
Average accepted packet length = 1
Total in-flight flits = 10917 (0 measured)
latency change    = 1
throughput change = 1
0
Class 0:
Minimum packet latency = 5
Average packet latency = 23.5958
Maximum packet latency = 61
Minimum network latency = 5
Average network latency = 23.5958
Maximum network latency = 61
Slowest packet = 394612
Minimum flit latency = 5
Average flit latency = 23.5958
Maximum flit latency = 61
Slowest flit = 394612
Minimum fragmentation = 0
Average fragmentation = 0
Maximum fragmentation = 0
Minimum injected packet rate = 0.866 (at node 158)
Average injected packet rate = 0.90008
Maximum injected packet rate = 0.93 (at node 344)
Minimum accepted packet rate = 0.841 (at node 242)
Average accepted packet rate = 0.878404
Maximum accepted packet rate = 0.912 (at node 511)
Minimum injected flit rate = 0.866 (at node 158)
Average injected flit rate = 0.90008
Maximum injected flit rate = 0.93 (at node 344)
Minimum accepted flit rate = 0.841 (at node 242)
Average accepted flit rate = 0.878404
Maximum accepted flit rate = 0.912 (at node 511)
Average injected packet length = 1
Average accepted packet length = 1
Total in-flight flits = 11098 (0 measured)
latency change    = 0.0103874
throughput change = 0.0241182
0
Class 0:
Minimum packet latency = 5
Average packet latency = 23.8655
Maximum packet latency = 65
Minimum network latency = 5
Average network latency = 23.8655
Maximum network latency = 65
Slowest packet = 438792
Minimum flit latency = 5
Average flit latency = 23.8655
Maximum flit latency = 65
Slowest flit = 438792
Minimum fragmentation = 0
Average fragmentation = 0
Maximum fragmentation = 0
Minimum injected packet rate = 0.862 (at node 218)
Average injected packet rate = 0.899613
Maximum injected packet rate = 0.936 (at node 88)
Minimum accepted packet rate = 0.864 (at node 87)
Average accepted packet rate = 0.900332
Maximum accepted packet rate = 0.942 (at node 156)
Minimum injected flit rate = 0.862 (at node 218)
Average injected flit rate = 0.899613
Maximum injected flit rate = 0.936 (at node 88)
Minimum accepted flit rate = 0.864 (at node 87)
Average accepted flit rate = 0.900332
Maximum accepted flit rate = 0.942 (at node 156)
Average injected packet length = 1
Average accepted packet length = 1
Total in-flight flits = 10914 (0 measured)
latency change    = 0.0113018
throughput change = 0.0243552
Warmed up ...Time used is 1500 cycles
1
Class 0:
Minimum packet latency = 5
Average packet latency = 23.6945
Maximum packet latency = 56
Minimum network latency = 5
Average network latency = 23.6945
Maximum network latency = 56
Slowest packet = 801870
Minimum flit latency = 5
Average flit latency = 23.7944
Maximum flit latency = 56
Slowest flit = 801870
Minimum fragmentation = 0
Average fragmentation = 0
Maximum fragmentation = 0
Minimum injected packet rate = 0.856 (at node 291)
Average injected packet rate = 0.90107
Maximum injected packet rate = 0.938 (at node 457)
Minimum accepted packet rate = 0.854 (at node 393)
Average accepted packet rate = 0.900793
Maximum accepted packet rate = 0.936 (at node 84)
Minimum injected flit rate = 0.856 (at node 291)
Average injected flit rate = 0.90107
Maximum injected flit rate = 0.938 (at node 457)
Minimum accepted flit rate = 0.854 (at node 393)
Average accepted flit rate = 0.900793
Maximum accepted flit rate = 0.936 (at node 84)
Average injected packet length = 1
Average accepted packet length = 1
Total in-flight flits = 10985 (10985 measured)
latency change    = 0.00721595
throughput change = 0.000511702
1
Class 0:
Minimum packet latency = 5
Average packet latency = 23.751
Maximum packet latency = 59
Minimum network latency = 5
Average network latency = 23.751
Maximum network latency = 59
Slowest packet = 912615
Minimum flit latency = 5
Average flit latency = 23.7996
Maximum flit latency = 59
Slowest flit = 912615
Minimum fragmentation = 0
Average fragmentation = 0
Maximum fragmentation = 0
Minimum injected packet rate = 0.873 (at node 252)
Average injected packet rate = 0.900266
Maximum injected packet rate = 0.931 (at node 481)
Minimum accepted packet rate = 0.871 (at node 126)
Average accepted packet rate = 0.900123
Maximum accepted packet rate = 0.928 (at node 271)
Minimum injected flit rate = 0.873 (at node 252)
Average injected flit rate = 0.900266
Maximum injected flit rate = 0.931 (at node 481)
Minimum accepted flit rate = 0.871 (at node 126)
Average accepted flit rate = 0.900123
Maximum accepted flit rate = 0.928 (at node 271)
Average injected packet length = 1
Average accepted packet length = 1
Total in-flight flits = 10987 (10987 measured)
latency change    = 0.00237783
throughput change = 0.000744256
1
Class 0:
Minimum packet latency = 5
Average packet latency = 23.8248
Maximum packet latency = 68
Minimum network latency = 5
Average network latency = 23.8248
Maximum network latency = 68
Slowest packet = 1205189
Minimum flit latency = 5
Average flit latency = 23.856
Maximum flit latency = 68
Slowest flit = 1205189
Minimum fragmentation = 0
Average fragmentation = 0
Maximum fragmentation = 0
Minimum injected packet rate = 0.875333 (at node 271)
Average injected packet rate = 0.899888
Maximum injected packet rate = 0.922667 (at node 505)
Minimum accepted packet rate = 0.877333 (at node 481)
Average accepted packet rate = 0.899815
Maximum accepted packet rate = 0.920667 (at node 319)
Minimum injected flit rate = 0.875333 (at node 271)
Average injected flit rate = 0.899888
Maximum injected flit rate = 0.922667 (at node 505)
Minimum accepted flit rate = 0.877333 (at node 481)
Average accepted flit rate = 0.899815
Maximum accepted flit rate = 0.920667 (at node 319)
Average injected packet length = 1
Average accepted packet length = 1
Total in-flight flits = 10970 (10970 measured)
latency change    = 0.00309665
throughput change = 0.000342229
Draining all recorded packets ...
Draining remaining packets ...
Time taken is 3092 cycles
====== Traffic class 0 ======
Overall minimum packet latency = 5 (1 samples)
Overall average packet latency = 23.8607 (1 samples)
Overall maximum packet latency = 68 (1 samples)
Overall minimum network latency = 5 (1 samples)
Overall average network latency = 23.8607 (1 samples)
Overall maximum network latency = 68 (1 samples)
Overall minimum flit latency = 5 (1 samples)
Overall average flit latency = 23.8794 (1 samples)
Overall maximum flit latency = 68 (1 samples)
Overall minimum fragmentation = 0 (1 samples)
Overall average fragmentation = 0 (1 samples)
Overall maximum fragmentation = 0 (1 samples)
Overall minimum injected packet rate = 0.875333 (1 samples)
Overall average injected packet rate = 0.899888 (1 samples)
Overall maximum injected packet rate = 0.922667 (1 samples)
Overall minimum accepted packet rate = 0.877333 (1 samples)
Overall average accepted packet rate = 0.899815 (1 samples)
Overall maximum accepted packet rate = 0.920667 (1 samples)
Overall minimum injected flit rate = 0.875333 (1 samples)
Overall average injected flit rate = 0.899888 (1 samples)
Overall maximum injected flit rate = 0.922667 (1 samples)
Overall minimum accepted flit rate = 0.877333 (1 samples)
Overall average accepted flit rate = 0.899815 (1 samples)
Overall maximum accepted flit rate = 0.920667 (1 samples)
Overall average injected packet size = 1 (1 samples)
Overall average accepted packet size = 1 (1 samples)
Overall average hops = 4.48394 (1 samples)
Total run time 148.828
