BEGIN Configuration File: ./FT3
injection_rate = 0.2;
traffic = bitrev;
use_size_power_of_two = yes;
routing_function = anca;
vc_buf_size = 16;
topology = fattree;
use_noc_latency = 0;
hold_switch_for_packet=0;

k = 10;
n = 3;

packet_size  = 1;
num_vcs      = 2;
vc_allocator = separable_input_first; 
sw_allocator = separable_input_first;

alloc_iters   = 1;
sample_period = 500;

wait_for_tail_credit = 0;
use_read_write       = 0;

credit_delay   = 2;
routing_delay  = 0;
vc_alloc_delay = 1;
sw_alloc_delay = 1;
st_final_delay = 1;

input_speedup     = 1;
output_speedup    = 1;
internal_speedup  = 2.0;

warmup_periods = 3;
sim_count      = 1;

priority = none;
injection_rate_uses_flits=1;

END Configuration File: ./FT3
Number of nodes: 1000
Number of routers: 300
Fat Tree
 k = 10 levels = 3
 each switch - total radix =  20
 # of switches = 300
 # of channels = 4000
 # of nodes ( size of network ) = 1000


Power of two: 512
#################################################################################
0
Class 0:
Minimum packet latency = 5
Average packet latency = 15.8427
Maximum packet latency = 23
Minimum network latency = 5
Average network latency = 15.8427
Maximum network latency = 23
Slowest packet = 36133
Minimum flit latency = 5
Average flit latency = 15.8427
Maximum flit latency = 23
Slowest flit = 36133
Minimum fragmentation = 0
Average fragmentation = 0
Maximum fragmentation = 0
Minimum injected packet rate = 0.15 (at node 104)
Average injected packet rate = 0.199156
Maximum injected packet rate = 0.246 (at node 458)
Minimum accepted packet rate = 0.142 (at node 44)
Average accepted packet rate = 0.192766
Maximum accepted packet rate = 0.238 (at node 427)
Minimum injected flit rate = 0.15 (at node 104)
Average injected flit rate = 0.199156
Maximum injected flit rate = 0.246 (at node 458)
Minimum accepted flit rate = 0.142 (at node 44)
Average accepted flit rate = 0.192766
Maximum accepted flit rate = 0.238 (at node 427)
Average injected packet length = 1
Average accepted packet length = 1
Total in-flight flits = 1636 (0 measured)
latency change    = 1
throughput change = 1
0
Class 0:
Minimum packet latency = 5
Average packet latency = 15.8634
Maximum packet latency = 24
Minimum network latency = 5
Average network latency = 15.8634
Maximum network latency = 24
Slowest packet = 72111
Minimum flit latency = 5
Average flit latency = 15.8634
Maximum flit latency = 24
Slowest flit = 72111
Minimum fragmentation = 0
Average fragmentation = 0
Maximum fragmentation = 0
Minimum injected packet rate = 0.166 (at node 231)
Average injected packet rate = 0.199377
Maximum injected packet rate = 0.23 (at node 101)
Minimum accepted packet rate = 0.161 (at node 462)
Average accepted packet rate = 0.196195
Maximum accepted packet rate = 0.228 (at node 38)
Minimum injected flit rate = 0.166 (at node 231)
Average injected flit rate = 0.199377
Maximum injected flit rate = 0.23 (at node 101)
Minimum accepted flit rate = 0.161 (at node 462)
Average accepted flit rate = 0.196195
Maximum accepted flit rate = 0.228 (at node 38)
Average injected packet length = 1
Average accepted packet length = 1
Total in-flight flits = 1629 (0 measured)
latency change    = 0.00130166
throughput change = 0.017481
0
Class 0:
Minimum packet latency = 5
Average packet latency = 15.8727
Maximum packet latency = 24
Minimum network latency = 5
Average network latency = 15.8727
Maximum network latency = 24
Slowest packet = 149034
Minimum flit latency = 5
Average flit latency = 15.8727
Maximum flit latency = 24
Slowest flit = 149034
Minimum fragmentation = 0
Average fragmentation = 0
Maximum fragmentation = 0
Minimum injected packet rate = 0.152 (at node 191)
Average injected packet rate = 0.200437
Maximum injected packet rate = 0.248 (at node 13)
Minimum accepted packet rate = 0.148 (at node 506)
Average accepted packet rate = 0.200262
Maximum accepted packet rate = 0.254 (at node 367)
Minimum injected flit rate = 0.152 (at node 191)
Average injected flit rate = 0.200437
Maximum injected flit rate = 0.248 (at node 13)
Minimum accepted flit rate = 0.148 (at node 506)
Average accepted flit rate = 0.200262
Maximum accepted flit rate = 0.254 (at node 367)
Average injected packet length = 1
Average accepted packet length = 1
Total in-flight flits = 1674 (0 measured)
latency change    = 0.000590165
throughput change = 0.0203055
Warmed up ...Time used is 1500 cycles
1
Class 0:
Minimum packet latency = 5
Average packet latency = 15.8467
Maximum packet latency = 23
Minimum network latency = 5
Average network latency = 15.8467
Maximum network latency = 23
Slowest packet = 168491
Minimum flit latency = 5
Average flit latency = 15.8767
Maximum flit latency = 23
Slowest flit = 152918
Minimum fragmentation = 0
Average fragmentation = 0
Maximum fragmentation = 0
Minimum injected packet rate = 0.154 (at node 330)
Average injected packet rate = 0.199625
Maximum injected packet rate = 0.262 (at node 238)
Minimum accepted packet rate = 0.158 (at node 165)
Average accepted packet rate = 0.199652
Maximum accepted packet rate = 0.262 (at node 238)
Minimum injected flit rate = 0.154 (at node 330)
Average injected flit rate = 0.199625
Maximum injected flit rate = 0.262 (at node 238)
Minimum accepted flit rate = 0.158 (at node 165)
Average accepted flit rate = 0.199652
Maximum accepted flit rate = 0.262 (at node 238)
Average injected packet length = 1
Average accepted packet length = 1
Total in-flight flits = 1667 (1667 measured)
latency change    = 0.00164398
throughput change = 0.00305218
1
Class 0:
Minimum packet latency = 5
Average packet latency = 15.8643
Maximum packet latency = 23
Minimum network latency = 5
Average network latency = 15.8643
Maximum network latency = 23
Slowest packet = 168491
Minimum flit latency = 5
Average flit latency = 15.879
Maximum flit latency = 23
Slowest flit = 152918
Minimum fragmentation = 0
Average fragmentation = 0
Maximum fragmentation = 0
Minimum injected packet rate = 0.16 (at node 239)
Average injected packet rate = 0.1996
Maximum injected packet rate = 0.238 (at node 36)
Minimum accepted packet rate = 0.16 (at node 494)
Average accepted packet rate = 0.199701
Maximum accepted packet rate = 0.242 (at node 331)
Minimum injected flit rate = 0.16 (at node 239)
Average injected flit rate = 0.1996
Maximum injected flit rate = 0.238 (at node 36)
Minimum accepted flit rate = 0.16 (at node 494)
Average accepted flit rate = 0.199701
Maximum accepted flit rate = 0.242 (at node 331)
Average injected packet length = 1
Average accepted packet length = 1
Total in-flight flits = 1622 (1622 measured)
latency change    = 0.00111155
throughput change = 0.000244506
1
Class 0:
Minimum packet latency = 5
Average packet latency = 15.8763
Maximum packet latency = 23
Minimum network latency = 5
Average network latency = 15.8763
Maximum network latency = 23
Slowest packet = 168491
Minimum flit latency = 5
Average flit latency = 15.8859
Maximum flit latency = 23
Slowest flit = 152918
Minimum fragmentation = 0
Average fragmentation = 0
Maximum fragmentation = 0
Minimum injected packet rate = 0.173333 (at node 42)
Average injected packet rate = 0.200014
Maximum injected packet rate = 0.230667 (at node 305)
Minimum accepted packet rate = 0.173333 (at node 403)
Average accepted packet rate = 0.200026
Maximum accepted packet rate = 0.228 (at node 406)
Minimum injected flit rate = 0.173333 (at node 42)
Average injected flit rate = 0.200014
Maximum injected flit rate = 0.230667 (at node 305)
Minimum accepted flit rate = 0.173333 (at node 403)
Average accepted flit rate = 0.200026
Maximum accepted flit rate = 0.228 (at node 406)
Average injected packet length = 1
Average accepted packet length = 1
Total in-flight flits = 1665 (1665 measured)
latency change    = 0.000752769
throughput change = 0.00162414
Draining all recorded packets ...
Draining remaining packets ...
Time taken is 3044 cycles
====== Traffic class 0 ======
Overall minimum packet latency = 5 (1 samples)
Overall average packet latency = 15.8842 (1 samples)
Overall maximum packet latency = 23 (1 samples)
Overall minimum network latency = 5 (1 samples)
Overall average network latency = 15.8842 (1 samples)
Overall maximum network latency = 23 (1 samples)
Overall minimum flit latency = 5 (1 samples)
Overall average flit latency = 15.892 (1 samples)
Overall maximum flit latency = 23 (1 samples)
Overall minimum fragmentation = 0 (1 samples)
Overall average fragmentation = 0 (1 samples)
Overall maximum fragmentation = 0 (1 samples)
Overall minimum injected packet rate = 0.173333 (1 samples)
Overall average injected packet rate = 0.200014 (1 samples)
Overall maximum injected packet rate = 0.230667 (1 samples)
Overall minimum accepted packet rate = 0.173333 (1 samples)
Overall average accepted packet rate = 0.200026 (1 samples)
Overall maximum accepted packet rate = 0.228 (1 samples)
Overall minimum injected flit rate = 0.173333 (1 samples)
Overall average injected flit rate = 0.200014 (1 samples)
Overall maximum injected flit rate = 0.230667 (1 samples)
Overall minimum accepted flit rate = 0.173333 (1 samples)
Overall average accepted flit rate = 0.200026 (1 samples)
Overall maximum accepted flit rate = 0.228 (1 samples)
Overall average injected packet size = 1 (1 samples)
Overall average accepted packet size = 1 (1 samples)
Overall average hops = 4.48578 (1 samples)
Total run time 40.7466
