BEGIN Configuration File: ./FT3
injection_rate = 0.95;
traffic = bitrev;
use_size_power_of_two = yes;
routing_function = anca;
vc_buf_size = 16;
topology = fattree;
use_noc_latency = 0;
hold_switch_for_packet=0;

k = 10;
n = 3;

packet_size  = 1;
num_vcs      = 2;
vc_allocator = separable_input_first; 
sw_allocator = separable_input_first;

alloc_iters   = 1;
sample_period = 500;

wait_for_tail_credit = 0;
use_read_write       = 0;

credit_delay   = 2;
routing_delay  = 0;
vc_alloc_delay = 1;
sw_alloc_delay = 1;
st_final_delay = 1;

input_speedup     = 1;
output_speedup    = 1;
internal_speedup  = 2.0;

warmup_periods = 3;
sim_count      = 1;

priority = none;
injection_rate_uses_flits=1;

END Configuration File: ./FT3
Number of nodes: 1000
Number of routers: 300
Fat Tree
 k = 10 levels = 3
 each switch - total radix =  20
 # of switches = 300
 # of channels = 4000
 # of nodes ( size of network ) = 1000


Power of two: 512
#################################################################################
0
Class 0:
Minimum packet latency = 5
Average packet latency = 26.2831
Maximum packet latency = 82
Minimum network latency = 5
Average network latency = 26.2831
Maximum network latency = 82
Slowest packet = 172380
Minimum flit latency = 5
Average flit latency = 26.2831
Maximum flit latency = 82
Slowest flit = 172380
Minimum fragmentation = 0
Average fragmentation = 0
Maximum fragmentation = 0
Minimum injected packet rate = 0.918 (at node 413)
Average injected packet rate = 0.949828
Maximum injected packet rate = 0.978 (at node 253)
Minimum accepted packet rate = 0.854 (at node 371)
Average accepted packet rate = 0.897172
Maximum accepted packet rate = 0.96 (at node 403)
Minimum injected flit rate = 0.918 (at node 413)
Average injected flit rate = 0.949828
Maximum injected flit rate = 0.978 (at node 253)
Minimum accepted flit rate = 0.854 (at node 371)
Average accepted flit rate = 0.897172
Maximum accepted flit rate = 0.96 (at node 403)
Average injected packet length = 1
Average accepted packet length = 1
Total in-flight flits = 13480 (0 measured)
latency change    = 1
throughput change = 1
0
Class 0:
Minimum packet latency = 5
Average packet latency = 27.2817
Maximum packet latency = 109
Minimum network latency = 5
Average network latency = 27.2817
Maximum network latency = 109
Slowest packet = 260263
Minimum flit latency = 5
Average flit latency = 27.2817
Maximum flit latency = 109
Slowest flit = 260263
Minimum fragmentation = 0
Average fragmentation = 0
Maximum fragmentation = 0
Minimum injected packet rate = 0.93 (at node 390)
Average injected packet rate = 0.949986
Maximum injected packet rate = 0.971 (at node 4)
Minimum accepted packet rate = 0.897 (at node 155)
Average accepted packet rate = 0.922551
Maximum accepted packet rate = 0.963 (at node 511)
Minimum injected flit rate = 0.93 (at node 390)
Average injected flit rate = 0.949986
Maximum injected flit rate = 0.971 (at node 4)
Minimum accepted flit rate = 0.897 (at node 155)
Average accepted flit rate = 0.922551
Maximum accepted flit rate = 0.963 (at node 511)
Average injected packet length = 1
Average accepted packet length = 1
Total in-flight flits = 14047 (0 measured)
latency change    = 0.0366057
throughput change = 0.0275095
0
Class 0:
Minimum packet latency = 5
Average packet latency = 28.3334
Maximum packet latency = 120
Minimum network latency = 5
Average network latency = 28.3334
Maximum network latency = 120
Slowest packet = 647644
Minimum flit latency = 5
Average flit latency = 28.3334
Maximum flit latency = 120
Slowest flit = 647644
Minimum fragmentation = 0
Average fragmentation = 0
Maximum fragmentation = 0
Minimum injected packet rate = 0.926 (at node 131)
Average injected packet rate = 0.949492
Maximum injected packet rate = 0.972 (at node 88)
Minimum accepted packet rate = 0.92 (at node 87)
Average accepted packet rate = 0.951117
Maximum accepted packet rate = 0.982 (at node 401)
Minimum injected flit rate = 0.926 (at node 131)
Average injected flit rate = 0.949492
Maximum injected flit rate = 0.972 (at node 88)
Minimum accepted flit rate = 0.92 (at node 87)
Average accepted flit rate = 0.951117
Maximum accepted flit rate = 0.982 (at node 401)
Average injected packet length = 1
Average accepted packet length = 1
Total in-flight flits = 13631 (0 measured)
latency change    = 0.0371171
throughput change = 0.0300346
Warmed up ...Time used is 1500 cycles
1
Class 0:
Minimum packet latency = 5
Average packet latency = 28.4072
Maximum packet latency = 120
Minimum network latency = 5
Average network latency = 28.4072
Maximum network latency = 120
Slowest packet = 832114
Minimum flit latency = 5
Average flit latency = 28.5904
Maximum flit latency = 120
Slowest flit = 832114
Minimum fragmentation = 0
Average fragmentation = 0
Maximum fragmentation = 0
Minimum injected packet rate = 0.926 (at node 45)
Average injected packet rate = 0.950867
Maximum injected packet rate = 0.974 (at node 59)
Minimum accepted packet rate = 0.92 (at node 353)
Average accepted packet rate = 0.949227
Maximum accepted packet rate = 0.976 (at node 203)
Minimum injected flit rate = 0.926 (at node 45)
Average injected flit rate = 0.950867
Maximum injected flit rate = 0.974 (at node 59)
Minimum accepted flit rate = 0.92 (at node 353)
Average accepted flit rate = 0.949227
Maximum accepted flit rate = 0.976 (at node 203)
Average injected packet length = 1
Average accepted packet length = 1
Total in-flight flits = 14051 (14051 measured)
latency change    = 0.00259952
throughput change = 0.00199175
1
Class 0:
Minimum packet latency = 5
Average packet latency = 28.3592
Maximum packet latency = 120
Minimum network latency = 5
Average network latency = 28.3592
Maximum network latency = 120
Slowest packet = 832114
Minimum flit latency = 5
Average flit latency = 28.452
Maximum flit latency = 120
Slowest flit = 832114
Minimum fragmentation = 0
Average fragmentation = 0
Maximum fragmentation = 0
Minimum injected packet rate = 0.928 (at node 271)
Average injected packet rate = 0.950197
Maximum injected packet rate = 0.97 (at node 481)
Minimum accepted packet rate = 0.929 (at node 478)
Average accepted packet rate = 0.950287
Maximum accepted packet rate = 0.971 (at node 271)
Minimum injected flit rate = 0.928 (at node 271)
Average injected flit rate = 0.950197
Maximum injected flit rate = 0.97 (at node 481)
Minimum accepted flit rate = 0.929 (at node 478)
Average accepted flit rate = 0.950287
Maximum accepted flit rate = 0.971 (at node 271)
Average injected packet length = 1
Average accepted packet length = 1
Total in-flight flits = 13585 (13585 measured)
latency change    = 0.00169401
throughput change = 0.00111603
1
Class 0:
Minimum packet latency = 5
Average packet latency = 28.2834
Maximum packet latency = 124
Minimum network latency = 5
Average network latency = 28.2834
Maximum network latency = 124
Slowest packet = 1352039
Minimum flit latency = 5
Average flit latency = 28.3467
Maximum flit latency = 124
Slowest flit = 1352039
Minimum fragmentation = 0
Average fragmentation = 0
Maximum fragmentation = 0
Minimum injected packet rate = 0.928667 (at node 499)
Average injected packet rate = 0.95002
Maximum injected packet rate = 0.966667 (at node 67)
Minimum accepted packet rate = 0.929333 (at node 415)
Average accepted packet rate = 0.949897
Maximum accepted packet rate = 0.967333 (at node 388)
Minimum injected flit rate = 0.928667 (at node 499)
Average injected flit rate = 0.95002
Maximum injected flit rate = 0.966667 (at node 67)
Minimum accepted flit rate = 0.929333 (at node 415)
Average accepted flit rate = 0.949897
Maximum accepted flit rate = 0.967333 (at node 388)
Average injected packet length = 1
Average accepted packet length = 1
Total in-flight flits = 13725 (13725 measured)
latency change    = 0.00268133
throughput change = 0.000410543
Draining all recorded packets ...
Draining remaining packets ...
Time taken is 3147 cycles
====== Traffic class 0 ======
Overall minimum packet latency = 5 (1 samples)
Overall average packet latency = 28.3516 (1 samples)
Overall maximum packet latency = 124 (1 samples)
Overall minimum network latency = 5 (1 samples)
Overall average network latency = 28.3516 (1 samples)
Overall maximum network latency = 124 (1 samples)
Overall minimum flit latency = 5 (1 samples)
Overall average flit latency = 28.3904 (1 samples)
Overall maximum flit latency = 124 (1 samples)
Overall minimum fragmentation = 0 (1 samples)
Overall average fragmentation = 0 (1 samples)
Overall maximum fragmentation = 0 (1 samples)
Overall minimum injected packet rate = 0.928667 (1 samples)
Overall average injected packet rate = 0.95002 (1 samples)
Overall maximum injected packet rate = 0.966667 (1 samples)
Overall minimum accepted packet rate = 0.929333 (1 samples)
Overall average accepted packet rate = 0.949897 (1 samples)
Overall maximum accepted packet rate = 0.967333 (1 samples)
Overall minimum injected flit rate = 0.928667 (1 samples)
Overall average injected flit rate = 0.95002 (1 samples)
Overall maximum injected flit rate = 0.966667 (1 samples)
Overall minimum accepted flit rate = 0.929333 (1 samples)
Overall average accepted flit rate = 0.949897 (1 samples)
Overall maximum accepted flit rate = 0.967333 (1 samples)
Overall average injected packet size = 1 (1 samples)
Overall average accepted packet size = 1 (1 samples)
Overall average hops = 4.48425 (1 samples)
Total run time 170.264
