BEGIN Configuration File: ./FT3_1
injection_rate = 0.4;
traffic = bitrev;
use_size_power_of_two = yes;
routing_function = nca;
vc_buf_size = 16;
topology = fattree;
use_noc_latency = 0;
hold_switch_for_packet=0;

k = 10;
n = 3;

packet_size  = 1;
num_vcs      = 2;
vc_allocator = separable_input_first; 
sw_allocator = separable_input_first;

alloc_iters   = 1;
sample_period = 500;

wait_for_tail_credit = 0;
use_read_write       = 0;

credit_delay   = 2;
routing_delay  = 0;
vc_alloc_delay = 1;
sw_alloc_delay = 1;
st_final_delay = 1;

input_speedup     = 1;
output_speedup    = 1;
internal_speedup  = 2.0;

warmup_periods = 3;
sim_count      = 1;

priority = none;
injection_rate_uses_flits=1;

END Configuration File: ./FT3_1
Number of nodes: 1000
Number of routers: 300
Fat Tree
 k = 10 levels = 3
 each switch - total radix =  20
 # of switches = 300
 # of channels = 4000
 # of nodes ( size of network ) = 1000


Power of two: 512
#################################################################################
0
Class 0:
Minimum packet latency = 5
Average packet latency = 16.384
Maximum packet latency = 27
Minimum network latency = 5
Average network latency = 16.384
Maximum network latency = 27
Slowest packet = 35971
Minimum flit latency = 5
Average flit latency = 16.384
Maximum flit latency = 27
Slowest flit = 35971
Minimum fragmentation = 0
Average fragmentation = 0
Maximum fragmentation = 0
Minimum injected packet rate = 0.336 (at node 231)
Average injected packet rate = 0.399004
Maximum injected packet rate = 0.468 (at node 330)
Minimum accepted packet rate = 0.322 (at node 462)
Average accepted packet rate = 0.385613
Maximum accepted packet rate = 0.45 (at node 165)
Minimum injected flit rate = 0.336 (at node 231)
Average injected flit rate = 0.399004
Maximum injected flit rate = 0.468 (at node 330)
Minimum accepted flit rate = 0.322 (at node 462)
Average accepted flit rate = 0.385613
Maximum accepted flit rate = 0.45 (at node 165)
Average injected packet length = 1
Average accepted packet length = 1
Total in-flight flits = 3428 (0 measured)
latency change    = 1
throughput change = 1
0
Class 0:
Minimum packet latency = 5
Average packet latency = 16.4055
Maximum packet latency = 27
Minimum network latency = 5
Average network latency = 16.4055
Maximum network latency = 27
Slowest packet = 35971
Minimum flit latency = 5
Average flit latency = 16.4055
Maximum flit latency = 27
Slowest flit = 35971
Minimum fragmentation = 0
Average fragmentation = 0
Maximum fragmentation = 0
Minimum injected packet rate = 0.357 (at node 85)
Average injected packet rate = 0.399568
Maximum injected packet rate = 0.444 (at node 330)
Minimum accepted packet rate = 0.35 (at node 340)
Average accepted packet rate = 0.392889
Maximum accepted packet rate = 0.435 (at node 165)
Minimum injected flit rate = 0.357 (at node 85)
Average injected flit rate = 0.399568
Maximum injected flit rate = 0.444 (at node 330)
Minimum accepted flit rate = 0.35 (at node 340)
Average accepted flit rate = 0.392889
Maximum accepted flit rate = 0.435 (at node 165)
Average injected packet length = 1
Average accepted packet length = 1
Total in-flight flits = 3420 (0 measured)
latency change    = 0.00131049
throughput change = 0.0185177
0
Class 0:
Minimum packet latency = 5
Average packet latency = 16.4346
Maximum packet latency = 26
Minimum network latency = 5
Average network latency = 16.4346
Maximum network latency = 26
Slowest packet = 285452
Minimum flit latency = 5
Average flit latency = 16.4346
Maximum flit latency = 26
Slowest flit = 285452
Minimum fragmentation = 0
Average fragmentation = 0
Maximum fragmentation = 0
Minimum injected packet rate = 0.334 (at node 184)
Average injected packet rate = 0.399816
Maximum injected packet rate = 0.468 (at node 348)
Minimum accepted packet rate = 0.332 (at node 58)
Average accepted packet rate = 0.399668
Maximum accepted packet rate = 0.468 (at node 117)
Minimum injected flit rate = 0.334 (at node 184)
Average injected flit rate = 0.399816
Maximum injected flit rate = 0.468 (at node 348)
Minimum accepted flit rate = 0.332 (at node 58)
Average accepted flit rate = 0.399668
Maximum accepted flit rate = 0.468 (at node 117)
Average injected packet length = 1
Average accepted packet length = 1
Total in-flight flits = 3458 (0 measured)
latency change    = 0.00177212
throughput change = 0.0169623
Warmed up ...Time used is 1500 cycles
1
Class 0:
Minimum packet latency = 5
Average packet latency = 16.394
Maximum packet latency = 28
Minimum network latency = 5
Average network latency = 16.394
Maximum network latency = 28
Slowest packet = 365185
Minimum flit latency = 5
Average flit latency = 16.4256
Maximum flit latency = 28
Slowest flit = 365185
Minimum fragmentation = 0
Average fragmentation = 0
Maximum fragmentation = 0
Minimum injected packet rate = 0.326 (at node 150)
Average injected packet rate = 0.399703
Maximum injected packet rate = 0.466 (at node 241)
Minimum accepted packet rate = 0.322 (at node 210)
Average accepted packet rate = 0.399988
Maximum accepted packet rate = 0.46 (at node 234)
Minimum injected flit rate = 0.326 (at node 150)
Average injected flit rate = 0.399703
Maximum injected flit rate = 0.466 (at node 241)
Minimum accepted flit rate = 0.322 (at node 210)
Average accepted flit rate = 0.399988
Maximum accepted flit rate = 0.46 (at node 234)
Average injected packet length = 1
Average accepted packet length = 1
Total in-flight flits = 3385 (3385 measured)
latency change    = 0.00247524
throughput change = 0.000800805
1
Class 0:
Minimum packet latency = 5
Average packet latency = 16.4132
Maximum packet latency = 28
Minimum network latency = 5
Average network latency = 16.4132
Maximum network latency = 28
Slowest packet = 365185
Minimum flit latency = 5
Average flit latency = 16.4287
Maximum flit latency = 28
Slowest flit = 365185
Minimum fragmentation = 0
Average fragmentation = 0
Maximum fragmentation = 0
Minimum injected packet rate = 0.355 (at node 242)
Average injected packet rate = 0.399504
Maximum injected packet rate = 0.449 (at node 241)
Minimum accepted packet rate = 0.354 (at node 158)
Average accepted packet rate = 0.399695
Maximum accepted packet rate = 0.446 (at node 286)
Minimum injected flit rate = 0.355 (at node 242)
Average injected flit rate = 0.399504
Maximum injected flit rate = 0.449 (at node 241)
Minimum accepted flit rate = 0.354 (at node 158)
Average accepted flit rate = 0.399695
Maximum accepted flit rate = 0.446 (at node 286)
Average injected packet length = 1
Average accepted packet length = 1
Total in-flight flits = 3360 (3360 measured)
latency change    = 0.00116975
throughput change = 0.00073298
1
Class 0:
Minimum packet latency = 5
Average packet latency = 16.4127
Maximum packet latency = 28
Minimum network latency = 5
Average network latency = 16.4127
Maximum network latency = 28
Slowest packet = 365185
Minimum flit latency = 5
Average flit latency = 16.4231
Maximum flit latency = 28
Slowest flit = 365185
Minimum fragmentation = 0
Average fragmentation = 0
Maximum fragmentation = 0
Minimum injected packet rate = 0.361333 (at node 14)
Average injected packet rate = 0.399327
Maximum injected packet rate = 0.44 (at node 35)
Minimum accepted packet rate = 0.362 (at node 224)
Average accepted packet rate = 0.399418
Maximum accepted packet rate = 0.439333 (at node 315)
Minimum injected flit rate = 0.361333 (at node 14)
Average injected flit rate = 0.399327
Maximum injected flit rate = 0.44 (at node 35)
Minimum accepted flit rate = 0.362 (at node 224)
Average accepted flit rate = 0.399418
Maximum accepted flit rate = 0.439333 (at node 315)
Average injected packet length = 1
Average accepted packet length = 1
Total in-flight flits = 3388 (3388 measured)
latency change    = 3.00149e-05
throughput change = 0.00069437
Draining all recorded packets ...
Draining remaining packets ...
Time taken is 3047 cycles
====== Traffic class 0 ======
Overall minimum packet latency = 5 (1 samples)
Overall average packet latency = 16.4232 (1 samples)
Overall maximum packet latency = 28 (1 samples)
Overall minimum network latency = 5 (1 samples)
Overall average network latency = 16.4232 (1 samples)
Overall maximum network latency = 28 (1 samples)
Overall minimum flit latency = 5 (1 samples)
Overall average flit latency = 16.4327 (1 samples)
Overall maximum flit latency = 28 (1 samples)
Overall minimum fragmentation = 0 (1 samples)
Overall average fragmentation = 0 (1 samples)
Overall maximum fragmentation = 0 (1 samples)
Overall minimum injected packet rate = 0.361333 (1 samples)
Overall average injected packet rate = 0.399327 (1 samples)
Overall maximum injected packet rate = 0.44 (1 samples)
Overall minimum accepted packet rate = 0.362 (1 samples)
Overall average accepted packet rate = 0.399418 (1 samples)
Overall maximum accepted packet rate = 0.439333 (1 samples)
Overall minimum injected flit rate = 0.361333 (1 samples)
Overall average injected flit rate = 0.399327 (1 samples)
Overall maximum injected flit rate = 0.44 (1 samples)
Overall minimum accepted flit rate = 0.362 (1 samples)
Overall average accepted flit rate = 0.399418 (1 samples)
Overall maximum accepted flit rate = 0.439333 (1 samples)
Overall average injected packet size = 1 (1 samples)
Overall average accepted packet size = 1 (1 samples)
Overall average hops = 4.48351 (1 samples)
Total run time 81.0536
