BEGIN Configuration File: ./FT3_1
injection_rate = 0.7;
traffic = bitrev;
use_size_power_of_two = yes;
routing_function = nca;
vc_buf_size = 16;
topology = fattree;
use_noc_latency = 0;
hold_switch_for_packet=0;

k = 10;
n = 3;

packet_size  = 1;
num_vcs      = 2;
vc_allocator = separable_input_first; 
sw_allocator = separable_input_first;

alloc_iters   = 1;
sample_period = 500;

wait_for_tail_credit = 0;
use_read_write       = 0;

credit_delay   = 2;
routing_delay  = 0;
vc_alloc_delay = 1;
sw_alloc_delay = 1;
st_final_delay = 1;

input_speedup     = 1;
output_speedup    = 1;
internal_speedup  = 2.0;

warmup_periods = 3;
sim_count      = 1;

priority = none;
injection_rate_uses_flits=1;

END Configuration File: ./FT3_1
Number of nodes: 1000
Number of routers: 300
Fat Tree
 k = 10 levels = 3
 each switch - total radix =  20
 # of switches = 300
 # of channels = 4000
 # of nodes ( size of network ) = 1000


Power of two: 512
#################################################################################
0
Class 0:
Minimum packet latency = 5
Average packet latency = 18.4572
Maximum packet latency = 39
Minimum network latency = 5
Average network latency = 18.4572
Maximum network latency = 39
Slowest packet = 67991
Minimum flit latency = 5
Average flit latency = 18.4572
Maximum flit latency = 39
Slowest flit = 67991
Minimum fragmentation = 0
Average fragmentation = 0
Maximum fragmentation = 0
Minimum injected packet rate = 0.632 (at node 428)
Average injected packet rate = 0.699313
Maximum injected packet rate = 0.76 (at node 467)
Minimum accepted packet rate = 0.61 (at node 107)
Average accepted packet rate = 0.67343
Maximum accepted packet rate = 0.748 (at node 254)
Minimum injected flit rate = 0.632 (at node 428)
Average injected flit rate = 0.699313
Maximum injected flit rate = 0.76 (at node 467)
Minimum accepted flit rate = 0.61 (at node 107)
Average accepted flit rate = 0.67343
Maximum accepted flit rate = 0.748 (at node 254)
Average injected packet length = 1
Average accepted packet length = 1
Total in-flight flits = 6626 (0 measured)
latency change    = 1
throughput change = 1
0
Class 0:
Minimum packet latency = 5
Average packet latency = 18.5067
Maximum packet latency = 39
Minimum network latency = 5
Average network latency = 18.5067
Maximum network latency = 39
Slowest packet = 67991
Minimum flit latency = 5
Average flit latency = 18.5067
Maximum flit latency = 39
Slowest flit = 67991
Minimum fragmentation = 0
Average fragmentation = 0
Maximum fragmentation = 0
Minimum injected packet rate = 0.655 (at node 171)
Average injected packet rate = 0.69924
Maximum injected packet rate = 0.743 (at node 254)
Minimum accepted packet rate = 0.641 (at node 107)
Average accepted packet rate = 0.686131
Maximum accepted packet rate = 0.74 (at node 254)
Minimum injected flit rate = 0.655 (at node 171)
Average injected flit rate = 0.69924
Maximum injected flit rate = 0.743 (at node 254)
Minimum accepted flit rate = 0.641 (at node 107)
Average accepted flit rate = 0.686131
Maximum accepted flit rate = 0.74 (at node 254)
Average injected packet length = 1
Average accepted packet length = 1
Total in-flight flits = 6712 (0 measured)
latency change    = 0.00267821
throughput change = 0.0185113
0
Class 0:
Minimum packet latency = 5
Average packet latency = 18.5453
Maximum packet latency = 38
Minimum network latency = 5
Average network latency = 18.5453
Maximum network latency = 38
Slowest packet = 369460
Minimum flit latency = 5
Average flit latency = 18.5453
Maximum flit latency = 38
Slowest flit = 369460
Minimum fragmentation = 0
Average fragmentation = 0
Maximum fragmentation = 0
Minimum injected packet rate = 0.636 (at node 184)
Average injected packet rate = 0.699387
Maximum injected packet rate = 0.752 (at node 149)
Minimum accepted packet rate = 0.63 (at node 58)
Average accepted packet rate = 0.699512
Maximum accepted packet rate = 0.756 (at node 338)
Minimum injected flit rate = 0.636 (at node 184)
Average injected flit rate = 0.699387
Maximum injected flit rate = 0.752 (at node 149)
Minimum accepted flit rate = 0.63 (at node 58)
Average accepted flit rate = 0.699512
Maximum accepted flit rate = 0.756 (at node 338)
Average injected packet length = 1
Average accepted packet length = 1
Total in-flight flits = 6680 (0 measured)
latency change    = 0.00208212
throughput change = 0.0191289
Warmed up ...Time used is 1500 cycles
1
Class 0:
Minimum packet latency = 5
Average packet latency = 18.5335
Maximum packet latency = 41
Minimum network latency = 5
Average network latency = 18.5335
Maximum network latency = 41
Slowest packet = 662777
Minimum flit latency = 5
Average flit latency = 18.5851
Maximum flit latency = 41
Slowest flit = 662777
Minimum fragmentation = 0
Average fragmentation = 0
Maximum fragmentation = 0
Minimum injected packet rate = 0.632 (at node 146)
Average injected packet rate = 0.700887
Maximum injected packet rate = 0.754 (at node 441)
Minimum accepted packet rate = 0.63 (at node 146)
Average accepted packet rate = 0.700801
Maximum accepted packet rate = 0.76 (at node 315)
Minimum injected flit rate = 0.632 (at node 146)
Average injected flit rate = 0.700887
Maximum injected flit rate = 0.754 (at node 441)
Minimum accepted flit rate = 0.63 (at node 146)
Average accepted flit rate = 0.700801
Maximum accepted flit rate = 0.76 (at node 315)
Average injected packet length = 1
Average accepted packet length = 1
Total in-flight flits = 6702 (6702 measured)
latency change    = 0.000641048
throughput change = 0.00183941
1
Class 0:
Minimum packet latency = 5
Average packet latency = 18.5451
Maximum packet latency = 41
Minimum network latency = 5
Average network latency = 18.5451
Maximum network latency = 41
Slowest packet = 662777
Minimum flit latency = 5
Average flit latency = 18.5708
Maximum flit latency = 41
Slowest flit = 662777
Minimum fragmentation = 0
Average fragmentation = 0
Maximum fragmentation = 0
Minimum injected packet rate = 0.658 (at node 247)
Average injected packet rate = 0.700346
Maximum injected packet rate = 0.747 (at node 398)
Minimum accepted packet rate = 0.659 (at node 481)
Average accepted packet rate = 0.700457
Maximum accepted packet rate = 0.746 (at node 227)
Minimum injected flit rate = 0.658 (at node 247)
Average injected flit rate = 0.700346
Maximum injected flit rate = 0.747 (at node 398)
Minimum accepted flit rate = 0.659 (at node 481)
Average accepted flit rate = 0.700457
Maximum accepted flit rate = 0.746 (at node 227)
Average injected packet length = 1
Average accepted packet length = 1
Total in-flight flits = 6623 (6623 measured)
latency change    = 0.000629751
throughput change = 0.000490751
1
Class 0:
Minimum packet latency = 5
Average packet latency = 18.5467
Maximum packet latency = 41
Minimum network latency = 5
Average network latency = 18.5467
Maximum network latency = 41
Slowest packet = 662777
Minimum flit latency = 5
Average flit latency = 18.5638
Maximum flit latency = 41
Slowest flit = 662777
Minimum fragmentation = 0
Average fragmentation = 0
Maximum fragmentation = 0
Minimum injected packet rate = 0.666 (at node 146)
Average injected packet rate = 0.700161
Maximum injected packet rate = 0.732667 (at node 27)
Minimum accepted packet rate = 0.665333 (at node 481)
Average accepted packet rate = 0.700221
Maximum accepted packet rate = 0.732667 (at node 165)
Minimum injected flit rate = 0.666 (at node 146)
Average injected flit rate = 0.700161
Maximum injected flit rate = 0.732667 (at node 27)
Minimum accepted flit rate = 0.665333 (at node 481)
Average accepted flit rate = 0.700221
Maximum accepted flit rate = 0.732667 (at node 165)
Average injected packet length = 1
Average accepted packet length = 1
Total in-flight flits = 6634 (6634 measured)
latency change    = 8.70988e-05
throughput change = 0.000336575
Draining all recorded packets ...
Draining remaining packets ...
Time taken is 3059 cycles
====== Traffic class 0 ======
Overall minimum packet latency = 5 (1 samples)
Overall average packet latency = 18.5616 (1 samples)
Overall maximum packet latency = 41 (1 samples)
Overall minimum network latency = 5 (1 samples)
Overall average network latency = 18.5616 (1 samples)
Overall maximum network latency = 41 (1 samples)
Overall minimum flit latency = 5 (1 samples)
Overall average flit latency = 18.5775 (1 samples)
Overall maximum flit latency = 41 (1 samples)
Overall minimum fragmentation = 0 (1 samples)
Overall average fragmentation = 0 (1 samples)
Overall maximum fragmentation = 0 (1 samples)
Overall minimum injected packet rate = 0.666 (1 samples)
Overall average injected packet rate = 0.700161 (1 samples)
Overall maximum injected packet rate = 0.732667 (1 samples)
Overall minimum accepted packet rate = 0.665333 (1 samples)
Overall average accepted packet rate = 0.700221 (1 samples)
Overall maximum accepted packet rate = 0.732667 (1 samples)
Overall minimum injected flit rate = 0.666 (1 samples)
Overall average injected flit rate = 0.700161 (1 samples)
Overall maximum injected flit rate = 0.732667 (1 samples)
Overall minimum accepted flit rate = 0.665333 (1 samples)
Overall average accepted flit rate = 0.700221 (1 samples)
Overall maximum accepted flit rate = 0.732667 (1 samples)
Overall average injected packet size = 1 (1 samples)
Overall average accepted packet size = 1 (1 samples)
Overall average hops = 4.48445 (1 samples)
Total run time 117.753
