BEGIN Configuration File: ./FT3
injection_rate = 0.6;
traffic = bitrev;
use_size_power_of_two = yes;
routing_function = anca;
vc_buf_size = 16;
topology = fattree;
use_noc_latency = 0;
hold_switch_for_packet=0;

k = 10;
n = 3;

packet_size  = 1;
num_vcs      = 2;
vc_allocator = separable_input_first; 
sw_allocator = separable_input_first;

alloc_iters   = 1;
sample_period = 500;

wait_for_tail_credit = 0;
use_read_write       = 0;

credit_delay   = 2;
routing_delay  = 0;
vc_alloc_delay = 1;
sw_alloc_delay = 1;
st_final_delay = 1;

input_speedup     = 1;
output_speedup    = 1;
internal_speedup  = 2.0;

warmup_periods = 3;
sim_count      = 1;

priority = none;
injection_rate_uses_flits=1;

END Configuration File: ./FT3
Number of nodes: 1000
Number of routers: 300
Fat Tree
 k = 10 levels = 3
 each switch - total radix =  20
 # of switches = 300
 # of channels = 4000
 # of nodes ( size of network ) = 1000


Power of two: 512
#################################################################################
0
Class 0:
Minimum packet latency = 5
Average packet latency = 17.9099
Maximum packet latency = 35
Minimum network latency = 5
Average network latency = 17.9099
Maximum network latency = 35
Slowest packet = 142264
Minimum flit latency = 5
Average flit latency = 17.9099
Maximum flit latency = 35
Slowest flit = 142264
Minimum fragmentation = 0
Average fragmentation = 0
Maximum fragmentation = 0
Minimum injected packet rate = 0.536 (at node 428)
Average injected packet rate = 0.599637
Maximum injected packet rate = 0.666 (at node 140)
Minimum accepted packet rate = 0.516 (at node 107)
Average accepted packet rate = 0.577969
Maximum accepted packet rate = 0.638 (at node 341)
Minimum injected flit rate = 0.536 (at node 428)
Average injected flit rate = 0.599637
Maximum injected flit rate = 0.666 (at node 140)
Minimum accepted flit rate = 0.516 (at node 107)
Average accepted flit rate = 0.577969
Maximum accepted flit rate = 0.638 (at node 341)
Average injected packet length = 1
Average accepted packet length = 1
Total in-flight flits = 5547 (0 measured)
latency change    = 1
throughput change = 1
0
Class 0:
Minimum packet latency = 5
Average packet latency = 17.939
Maximum packet latency = 35
Minimum network latency = 5
Average network latency = 17.939
Maximum network latency = 35
Slowest packet = 142264
Minimum flit latency = 5
Average flit latency = 17.939
Maximum flit latency = 35
Slowest flit = 142264
Minimum fragmentation = 0
Average fragmentation = 0
Maximum fragmentation = 0
Minimum injected packet rate = 0.556 (at node 236)
Average injected packet rate = 0.599807
Maximum injected packet rate = 0.64 (at node 200)
Minimum accepted packet rate = 0.545 (at node 107)
Average accepted packet rate = 0.588961
Maximum accepted packet rate = 0.631 (at node 38)
Minimum injected flit rate = 0.556 (at node 236)
Average injected flit rate = 0.599807
Maximum injected flit rate = 0.64 (at node 200)
Minimum accepted flit rate = 0.545 (at node 107)
Average accepted flit rate = 0.588961
Maximum accepted flit rate = 0.631 (at node 38)
Average injected packet length = 1
Average accepted packet length = 1
Total in-flight flits = 5553 (0 measured)
latency change    = 0.00161994
throughput change = 0.0186637
0
Class 0:
Minimum packet latency = 5
Average packet latency = 17.9807
Maximum packet latency = 35
Minimum network latency = 5
Average network latency = 17.9807
Maximum network latency = 35
Slowest packet = 426623
Minimum flit latency = 5
Average flit latency = 17.9807
Maximum flit latency = 35
Slowest flit = 426623
Minimum fragmentation = 0
Average fragmentation = 0
Maximum fragmentation = 0
Minimum injected packet rate = 0.53 (at node 184)
Average injected packet rate = 0.59973
Maximum injected packet rate = 0.66 (at node 158)
Minimum accepted packet rate = 0.522 (at node 58)
Average accepted packet rate = 0.599602
Maximum accepted packet rate = 0.664 (at node 242)
Minimum injected flit rate = 0.53 (at node 184)
Average injected flit rate = 0.59973
Maximum injected flit rate = 0.66 (at node 158)
Minimum accepted flit rate = 0.522 (at node 58)
Average accepted flit rate = 0.599602
Maximum accepted flit rate = 0.664 (at node 242)
Average injected packet length = 1
Average accepted packet length = 1
Total in-flight flits = 5586 (0 measured)
latency change    = 0.00231929
throughput change = 0.0177462
Warmed up ...Time used is 1500 cycles
1
Class 0:
Minimum packet latency = 5
Average packet latency = 17.914
Maximum packet latency = 35
Minimum network latency = 5
Average network latency = 17.914
Maximum network latency = 35
Slowest packet = 483702
Minimum flit latency = 5
Average flit latency = 17.9598
Maximum flit latency = 35
Slowest flit = 483702
Minimum fragmentation = 0
Average fragmentation = 0
Maximum fragmentation = 0
Minimum injected packet rate = 0.53 (at node 146)
Average injected packet rate = 0.600191
Maximum injected packet rate = 0.664 (at node 279)
Minimum accepted packet rate = 0.526 (at node 146)
Average accepted packet rate = 0.600219
Maximum accepted packet rate = 0.662 (at node 465)
Minimum injected flit rate = 0.53 (at node 146)
Average injected flit rate = 0.600191
Maximum injected flit rate = 0.664 (at node 279)
Minimum accepted flit rate = 0.526 (at node 146)
Average accepted flit rate = 0.600219
Maximum accepted flit rate = 0.662 (at node 465)
Average injected packet length = 1
Average accepted packet length = 1
Total in-flight flits = 5579 (5579 measured)
latency change    = 0.0037198
throughput change = 0.00102827
1
Class 0:
Minimum packet latency = 5
Average packet latency = 17.9494
Maximum packet latency = 35
Minimum network latency = 5
Average network latency = 17.9494
Maximum network latency = 35
Slowest packet = 483702
Minimum flit latency = 5
Average flit latency = 17.9717
Maximum flit latency = 35
Slowest flit = 483702
Minimum fragmentation = 0
Average fragmentation = 0
Maximum fragmentation = 0
Minimum injected packet rate = 0.56 (at node 146)
Average injected packet rate = 0.599785
Maximum injected packet rate = 0.639 (at node 179)
Minimum accepted packet rate = 0.557 (at node 146)
Average accepted packet rate = 0.599988
Maximum accepted packet rate = 0.64 (at node 406)
Minimum injected flit rate = 0.56 (at node 146)
Average injected flit rate = 0.599785
Maximum injected flit rate = 0.639 (at node 179)
Minimum accepted flit rate = 0.557 (at node 146)
Average accepted flit rate = 0.599988
Maximum accepted flit rate = 0.64 (at node 406)
Average injected packet length = 1
Average accepted packet length = 1
Total in-flight flits = 5482 (5482 measured)
latency change    = 0.00197093
throughput change = 0.000384122
1
Class 0:
Minimum packet latency = 5
Average packet latency = 17.9538
Maximum packet latency = 35
Minimum network latency = 5
Average network latency = 17.9538
Maximum network latency = 35
Slowest packet = 483702
Minimum flit latency = 5
Average flit latency = 17.9686
Maximum flit latency = 35
Slowest flit = 483702
Minimum fragmentation = 0
Average fragmentation = 0
Maximum fragmentation = 0
Minimum injected packet rate = 0.563333 (at node 146)
Average injected packet rate = 0.599595
Maximum injected packet rate = 0.642667 (at node 441)
Minimum accepted packet rate = 0.562667 (at node 146)
Average accepted packet rate = 0.599628
Maximum accepted packet rate = 0.644667 (at node 315)
Minimum injected flit rate = 0.563333 (at node 146)
Average injected flit rate = 0.599595
Maximum injected flit rate = 0.642667 (at node 441)
Minimum accepted flit rate = 0.562667 (at node 146)
Average accepted flit rate = 0.599628
Maximum accepted flit rate = 0.644667 (at node 315)
Average injected packet length = 1
Average accepted packet length = 1
Total in-flight flits = 5561 (5561 measured)
latency change    = 0.000246613
throughput change = 0.000601502
Draining all recorded packets ...
Draining remaining packets ...
Time taken is 3061 cycles
====== Traffic class 0 ======
Overall minimum packet latency = 5 (1 samples)
Overall average packet latency = 17.968 (1 samples)
Overall maximum packet latency = 35 (1 samples)
Overall minimum network latency = 5 (1 samples)
Overall average network latency = 17.968 (1 samples)
Overall maximum network latency = 35 (1 samples)
Overall minimum flit latency = 5 (1 samples)
Overall average flit latency = 17.9819 (1 samples)
Overall maximum flit latency = 35 (1 samples)
Overall minimum fragmentation = 0 (1 samples)
Overall average fragmentation = 0 (1 samples)
Overall maximum fragmentation = 0 (1 samples)
Overall minimum injected packet rate = 0.563333 (1 samples)
Overall average injected packet rate = 0.599595 (1 samples)
Overall maximum injected packet rate = 0.642667 (1 samples)
Overall minimum accepted packet rate = 0.562667 (1 samples)
Overall average accepted packet rate = 0.599628 (1 samples)
Overall maximum accepted packet rate = 0.644667 (1 samples)
Overall minimum injected flit rate = 0.563333 (1 samples)
Overall average injected flit rate = 0.599595 (1 samples)
Overall maximum injected flit rate = 0.642667 (1 samples)
Overall minimum accepted flit rate = 0.562667 (1 samples)
Overall average accepted flit rate = 0.599628 (1 samples)
Overall maximum accepted flit rate = 0.644667 (1 samples)
Overall average injected packet size = 1 (1 samples)
Overall average accepted packet size = 1 (1 samples)
Overall average hops = 4.48344 (1 samples)
Total run time 108.538
