BEGIN Configuration File: ./FT3_1
injection_rate = 0.01;
traffic = bitrev;
use_size_power_of_two = yes;
routing_function = nca;
vc_buf_size = 16;
topology = fattree;
use_noc_latency = 0;
hold_switch_for_packet=0;

k = 10;
n = 3;

packet_size  = 1;
num_vcs      = 2;
vc_allocator = separable_input_first; 
sw_allocator = separable_input_first;

alloc_iters   = 1;
sample_period = 500;

wait_for_tail_credit = 0;
use_read_write       = 0;

credit_delay   = 2;
routing_delay  = 0;
vc_alloc_delay = 1;
sw_alloc_delay = 1;
st_final_delay = 1;

input_speedup     = 1;
output_speedup    = 1;
internal_speedup  = 2.0;

warmup_periods = 3;
sim_count      = 1;

priority = none;
injection_rate_uses_flits=1;

END Configuration File: ./FT3_1
Number of nodes: 1000
Number of routers: 300
Fat Tree
 k = 10 levels = 3
 each switch - total radix =  20
 # of switches = 300
 # of channels = 4000
 # of nodes ( size of network ) = 1000


Power of two: 512
#################################################################################
0
Class 0:
Minimum packet latency = 5
Average packet latency = 15.4411
Maximum packet latency = 18
Minimum network latency = 5
Average network latency = 15.4411
Maximum network latency = 18
Slowest packet = 218
Minimum flit latency = 5
Average flit latency = 15.4411
Maximum flit latency = 18
Slowest flit = 218
Minimum fragmentation = 0
Average fragmentation = 0
Maximum fragmentation = 0
Minimum injected packet rate = 0 (at node 203)
Average injected packet rate = 0.00998047
Maximum injected packet rate = 0.03 (at node 170)
Minimum accepted packet rate = 0 (at node 235)
Average accepted packet rate = 0.00965234
Maximum accepted packet rate = 0.03 (at node 170)
Minimum injected flit rate = 0 (at node 203)
Average injected flit rate = 0.00998047
Maximum injected flit rate = 0.03 (at node 170)
Minimum accepted flit rate = 0 (at node 235)
Average accepted flit rate = 0.00965234
Maximum accepted flit rate = 0.03 (at node 170)
Average injected packet length = 1
Average accepted packet length = 1
Total in-flight flits = 84 (0 measured)
latency change    = 1
throughput change = 1
0
Class 0:
Minimum packet latency = 5
Average packet latency = 15.4471
Maximum packet latency = 18
Minimum network latency = 5
Average network latency = 15.4471
Maximum network latency = 18
Slowest packet = 218
Minimum flit latency = 5
Average flit latency = 15.4471
Maximum flit latency = 18
Slowest flit = 218
Minimum fragmentation = 0
Average fragmentation = 0
Maximum fragmentation = 0
Minimum injected packet rate = 0.002 (at node 207)
Average injected packet rate = 0.00991406
Maximum injected packet rate = 0.02 (at node 89)
Minimum accepted packet rate = 0.002 (at node 357)
Average accepted packet rate = 0.00974609
Maximum accepted packet rate = 0.019 (at node 308)
Minimum injected flit rate = 0.002 (at node 207)
Average injected flit rate = 0.00991406
Maximum injected flit rate = 0.02 (at node 89)
Minimum accepted flit rate = 0.002 (at node 357)
Average accepted flit rate = 0.00974609
Maximum accepted flit rate = 0.019 (at node 308)
Average injected packet length = 1
Average accepted packet length = 1
Total in-flight flits = 86 (0 measured)
latency change    = 0.000386949
throughput change = 0.00961924
0
Class 0:
Minimum packet latency = 5
Average packet latency = 15.4469
Maximum packet latency = 19
Minimum network latency = 5
Average network latency = 15.4469
Maximum network latency = 19
Slowest packet = 5439
Minimum flit latency = 5
Average flit latency = 15.4469
Maximum flit latency = 19
Slowest flit = 5439
Minimum fragmentation = 0
Average fragmentation = 0
Maximum fragmentation = 0
Minimum injected packet rate = 0 (at node 283)
Average injected packet rate = 0.0100625
Maximum injected packet rate = 0.028 (at node 190)
Minimum accepted packet rate = 0 (at node 127)
Average accepted packet rate = 0.0100703
Maximum accepted packet rate = 0.03 (at node 250)
Minimum injected flit rate = 0 (at node 283)
Average injected flit rate = 0.0100625
Maximum injected flit rate = 0.028 (at node 190)
Minimum accepted flit rate = 0 (at node 127)
Average accepted flit rate = 0.0100703
Maximum accepted flit rate = 0.03 (at node 250)
Average injected packet length = 1
Average accepted packet length = 1
Total in-flight flits = 84 (0 measured)
latency change    = 1.52885e-05
throughput change = 0.0321955
Warmed up ...Time used is 1500 cycles
1
Class 0:
Minimum packet latency = 5
Average packet latency = 15.5251
Maximum packet latency = 18
Minimum network latency = 5
Average network latency = 15.5251
Maximum network latency = 18
Slowest packet = 7740
Minimum flit latency = 5
Average flit latency = 15.5519
Maximum flit latency = 19
Slowest flit = 7619
Minimum fragmentation = 0
Average fragmentation = 0
Maximum fragmentation = 0
Minimum injected packet rate = 0 (at node 92)
Average injected packet rate = 0.00975781
Maximum injected packet rate = 0.028 (at node 266)
Minimum accepted packet rate = 0 (at node 116)
Average accepted packet rate = 0.00974609
Maximum accepted packet rate = 0.026 (at node 152)
Minimum injected flit rate = 0 (at node 92)
Average injected flit rate = 0.00975781
Maximum injected flit rate = 0.028 (at node 266)
Minimum accepted flit rate = 0 (at node 116)
Average accepted flit rate = 0.00974609
Maximum accepted flit rate = 0.026 (at node 152)
Average injected packet length = 1
Average accepted packet length = 1
Total in-flight flits = 87 (87 measured)
latency change    = 0.00503928
throughput change = 0.0332665
1
Class 0:
Minimum packet latency = 5
Average packet latency = 15.4365
Maximum packet latency = 18
Minimum network latency = 5
Average network latency = 15.4365
Maximum network latency = 18
Slowest packet = 7740
Minimum flit latency = 5
Average flit latency = 15.4512
Maximum flit latency = 19
Slowest flit = 7619
Minimum fragmentation = 0
Average fragmentation = 0
Maximum fragmentation = 0
Minimum injected packet rate = 0.002 (at node 92)
Average injected packet rate = 0.00986719
Maximum injected packet rate = 0.025 (at node 303)
Minimum accepted packet rate = 0.002 (at node 116)
Average accepted packet rate = 0.00986523
Maximum accepted packet rate = 0.026 (at node 489)
Minimum injected flit rate = 0.002 (at node 92)
Average injected flit rate = 0.00986719
Maximum injected flit rate = 0.025 (at node 303)
Minimum accepted flit rate = 0.002 (at node 116)
Average accepted flit rate = 0.00986523
Maximum accepted flit rate = 0.026 (at node 489)
Average injected packet length = 1
Average accepted packet length = 1
Total in-flight flits = 85 (85 measured)
latency change    = 0.00574046
throughput change = 0.0120768
1
Class 0:
Minimum packet latency = 5
Average packet latency = 15.4521
Maximum packet latency = 18
Minimum network latency = 5
Average network latency = 15.4521
Maximum network latency = 18
Slowest packet = 7740
Minimum flit latency = 5
Average flit latency = 15.4617
Maximum flit latency = 19
Slowest flit = 7619
Minimum fragmentation = 0
Average fragmentation = 0
Maximum fragmentation = 0
Minimum injected packet rate = 0.00266667 (at node 483)
Average injected packet rate = 0.009875
Maximum injected packet rate = 0.02 (at node 303)
Minimum accepted packet rate = 0.00266667 (at node 399)
Average accepted packet rate = 0.00990365
Maximum accepted packet rate = 0.0206667 (at node 489)
Minimum injected flit rate = 0.00266667 (at node 483)
Average injected flit rate = 0.009875
Maximum injected flit rate = 0.02 (at node 303)
Minimum accepted flit rate = 0.00266667 (at node 399)
Average accepted flit rate = 0.00990365
Maximum accepted flit rate = 0.0206667 (at node 489)
Average injected packet length = 1
Average accepted packet length = 1
Total in-flight flits = 62 (62 measured)
latency change    = 0.00101343
throughput change = 0.00387852
Draining all recorded packets ...
Draining remaining packets ...
Time taken is 3038 cycles
====== Traffic class 0 ======
Overall minimum packet latency = 5 (1 samples)
Overall average packet latency = 15.4569 (1 samples)
Overall maximum packet latency = 18 (1 samples)
Overall minimum network latency = 5 (1 samples)
Overall average network latency = 15.4569 (1 samples)
Overall maximum network latency = 18 (1 samples)
Overall minimum flit latency = 5 (1 samples)
Overall average flit latency = 15.4666 (1 samples)
Overall maximum flit latency = 19 (1 samples)
Overall minimum fragmentation = 0 (1 samples)
Overall average fragmentation = 0 (1 samples)
Overall maximum fragmentation = 0 (1 samples)
Overall minimum injected packet rate = 0.00266667 (1 samples)
Overall average injected packet rate = 0.009875 (1 samples)
Overall maximum injected packet rate = 0.02 (1 samples)
Overall minimum accepted packet rate = 0.00266667 (1 samples)
Overall average accepted packet rate = 0.00990365 (1 samples)
Overall maximum accepted packet rate = 0.0206667 (1 samples)
Overall minimum injected flit rate = 0.00266667 (1 samples)
Overall average injected flit rate = 0.009875 (1 samples)
Overall maximum injected flit rate = 0.02 (1 samples)
Overall minimum accepted flit rate = 0.00266667 (1 samples)
Overall average accepted flit rate = 0.00990365 (1 samples)
Overall maximum accepted flit rate = 0.0206667 (1 samples)
Overall average injected packet size = 1 (1 samples)
Overall average accepted packet size = 1 (1 samples)
Overall average hops = 4.48154 (1 samples)
Total run time 16.4999
