BEGIN Configuration File: ./LH-HC.conf
injection_rate = 0.01;
traffic = uniform;
use_size_power_of_two = no;
routing_function = min;
vc_buf_size = 16;
network_file = LH-HC.7.bsconf;
load_routing_file = no;
routing_table_file = LH-HC.7.bsconf;
topology = anynet;
use_noc_latency = 0;
hold_switch_for_packet=0;

k = 1;

packet_size  = 1;
num_vcs      = 4;
vc_allocator = separable_input_first; 
sw_allocator = separable_input_first;

alloc_iters   = 1;
sample_period = 500;

wait_for_tail_credit = 0;
use_read_write       = 0;

credit_delay   = 2;
routing_delay  = 0;
vc_alloc_delay = 1;
sw_alloc_delay = 1;
st_final_delay = 1;

input_speedup     = 1;
output_speedup    = 1;
internal_speedup  = 2.0;

warmup_periods = 3;
sim_count      = 1;

priority = none;
injection_rate_uses_flits=1;
injection_rate = 0.01;
traffic = uniform;
use_size_power_of_two = no;
routing_function = min;
vc_buf_size = 16;
network_file = LH-HC.7.bsconf;
load_routing_file = no;
routing_table_file = LH-HC.7.bsconf;
topology = anynet;
use_noc_latency = 0;
hold_switch_for_packet=0;

k = 1;

packet_size  = 1;
num_vcs      = 4;
vc_allocator = separable_input_first; 
sw_allocator = separable_input_first;

alloc_iters   = 1;
sample_period = 500;

wait_for_tail_credit = 0;
use_read_write       = 0;

credit_delay   = 2;
routing_delay  = 0;
vc_alloc_delay = 1;
sw_alloc_delay = 1;
st_final_delay = 1;

input_speedup     = 1;
output_speedup    = 1;
internal_speedup  = 2.0;

warmup_periods = 3;
sim_count      = 1;

priority = none;
injection_rate_uses_flits=1;
injection_rate = 0.01;
traffic = uniform;
use_size_power_of_two = no;
routing_function = min;
vc_buf_size = 16;
network_file = LH-HC.7.bsconf;
load_routing_file = no;
routing_table_file = LH-HC.7.route;
topology = anynet;
use_noc_latency = 0;
hold_switch_for_packet=0;

k = 1;

packet_size  = 1;
num_vcs      = 4;
vc_allocator = separable_input_first; 
sw_allocator = separable_input_first;

alloc_iters   = 1;
sample_period = 500;

wait_for_tail_credit = 0;
use_read_write       = 0;

credit_delay   = 2;
routing_delay  = 0;
vc_alloc_delay = 1;
sw_alloc_delay = 1;
st_final_delay = 1;

input_speedup     = 1;
output_speedup    = 1;
internal_speedup  = 2.0;

warmup_periods = 3;
sim_count      = 1;

priority = none;
injection_rate_uses_flits=1;
injection_rate = 0.01;
traffic = uniform;
use_size_power_of_two = no;
routing_function = min;
vc_buf_size = 16;
network_file = LH-HC.8.bsconf;
load_routing_file = no;
routing_table_file = LH-HC.8.route;
topology = anynet;
use_noc_latency = 0;
hold_switch_for_packet=0;

k = 1;

packet_size  = 1;
num_vcs      = 4;
vc_allocator = separable_input_first; 
sw_allocator = separable_input_first;

alloc_iters   = 1;
sample_period = 500;

wait_for_tail_credit = 0;
use_read_write       = 0;

credit_delay   = 2;
routing_delay  = 0;
vc_alloc_delay = 1;
sw_alloc_delay = 1;
st_final_delay = 1;

input_speedup     = 1;
output_speedup    = 1;
internal_speedup  = 2.0;

warmup_periods = 3;
sim_count      = 1;

priority = none;
injection_rate_uses_flits=1;
injection_rate = 0.01;
traffic = uniform;
use_size_power_of_two = no;
routing_function = min;
vc_buf_size = 16;
network_file = LH-HC.9.bsconf;
load_routing_file = no;
routing_table_file = LH-HC.9.route;
topology = anynet;
use_noc_latency = 0;
hold_switch_for_packet=0;

k = 1;

packet_size  = 1;
num_vcs      = 4;
vc_allocator = separable_input_first; 
sw_allocator = separable_input_first;

alloc_iters   = 1;
sample_period = 500;

wait_for_tail_credit = 0;
use_read_write       = 0;

credit_delay   = 2;
routing_delay  = 0;
vc_alloc_delay = 1;
sw_alloc_delay = 1;
st_final_delay = 1;

input_speedup     = 1;
output_speedup    = 1;
internal_speedup  = 2.0;

warmup_periods = 3;
sim_count      = 1;

priority = none;
injection_rate_uses_flits=1;
injection_rate = 0.01;
traffic = uniform;
use_size_power_of_two = no;
routing_function = min;
vc_buf_size = 16;
network_file = LH-HC.10.bsconf;
load_routing_file = no;
routing_table_file = LH-HC.10.route;
topology = anynet;
use_noc_latency = 0;
hold_switch_for_packet=0;

k = 1;

packet_size  = 1;
num_vcs      = 4;
vc_allocator = separable_input_first; 
sw_allocator = separable_input_first;

alloc_iters   = 1;
sample_period = 500;

wait_for_tail_credit = 0;
use_read_write       = 0;

credit_delay   = 2;
routing_delay  = 0;
vc_alloc_delay = 1;
sw_alloc_delay = 1;
st_final_delay = 1;

input_speedup     = 1;
output_speedup    = 1;
internal_speedup  = 2.0;

warmup_periods = 3;
sim_count      = 1;

priority = none;
injection_rate_uses_flits=1;

END Configuration File: ./LH-HC.conf
========================Network File Parsed=================
******************node listing**********************

****************router to node listing*************

*****************router to router listing************
Number of nodes: 1024
Number of routers: 1024
==========================Node to Router =====================
==========================Router to Router =====================
========================== Build Routing table  =====================
Start searching...Routing table for router 0 done  |
Start searching...Routing table for router 1 done  |
Start searching...Routing table for router 2 done  |
Start searching...Routing table for router 3 done  |
Start searching...Routing table for router 4 done  |
Start searching...Routing table for router 5 done  |
Start searching...Routing table for router 6 done  |
Start searching...Routing table for router 7 done  |
Start searching...Routing table for router 8 done  |
Start searching...Routing table for router 9 done  |
Start searching...Routing table for router 10 done  |
Start searching...Routing table for router 11 done  |
Start searching...Routing table for router 12 done  |
Start searching...Routing table for router 13 done  |
Start searching...Routing table for router 14 done  |
Start searching...Routing table for router 15 done  |
Start searching...Routing table for router 16 done  |
Start searching...Routing table for router 17 done  |
Start searching...Routing table for router 18 done  |
Start searching...Routing table for router 19 done  |
Start searching...Routing table for router 20 done  |
Start searching...Routing table for router 21 done  |
Start searching...Routing table for router 22 done  |
Start searching...Routing table for router 23 done  |
Start searching...Routing table for router 24 done  |
Start searching...Routing table for router 25 done  |
Start searching...Routing table for router 26 done  |
Start searching...Routing table for router 27 done  |
Start searching...Routing table for router 28 done  |
Start searching...Routing table for router 29 done  |
Start searching...Routing table for router 30 done  |
Start searching...Routing table for router 31 done  |
Start searching...Routing table for router 32 done  |
Start searching...Routing table for router 33 done  |
Start searching...Routing table for router 34 done  |
Start searching...Routing table for router 35 done  |
Start searching...Routing table for router 36 done  |
Start searching...Routing table for router 37 done  |
Start searching...Routing table for router 38 done  |
Start searching...Routing table for router 39 done  |
Start searching...Routing table for router 40 done  |
Start searching...Routing table for router 41 done  |
Start searching...Routing table for router 42 done  |
Start searching...Routing table for router 43 done  |
Start searching...Routing table for router 44 done  |
Start searching...Routing table for router 45 done  |
Start searching...Routing table for router 46 done  |
Start searching...Routing table for router 47 done  |
Start searching...Routing table for router 48 done  |
Start searching...Routing table for router 49 done  |
Start searching...Routing table for router 50 done  |
Start searching...Routing table for router 51 done  |
Start searching...Routing table for router 52 done  |
Start searching...Routing table for router 53 done  |
Start searching...Routing table for router 54 done  |
Start searching...Routing table for router 55 done  |
Start searching...Routing table for router 56 done  |
Start searching...Routing table for router 57 done  |
Start searching...Routing table for router 58 done  |
Start searching...Routing table for router 59 done  |
Start searching...Routing table for router 60 done  |
Start searching...Routing table for router 61 done  |
Start searching...Routing table for router 62 done  |
Start searching...Routing table for router 63 done  |
Start searching...Routing table for router 64 done  |
Start searching...Routing table for router 65 done  |
Start searching...Routing table for router 66 done  |
Start searching...Routing table for router 67 done  |
Start searching...Routing table for router 68 done  |
Start searching...Routing table for router 69 done  |
Start searching...Routing table for router 70 done  |
Start searching...Routing table for router 71 done  |
Start searching...Routing table for router 72 done  |
Start searching...Routing table for router 73 done  |
Start searching...Routing table for router 74 done  |
Start searching...Routing table for router 75 done  |
Start searching...Routing table for router 76 done  |
Start searching...Routing table for router 77 done  |
Start searching...Routing table for router 78 done  |
Start searching...Routing table for router 79 done  |
Start searching...Routing table for router 80 done  |
Start searching...Routing table for router 81 done  |
Start searching...Routing table for router 82 done  |
Start searching...Routing table for router 83 done  |
Start searching...Routing table for router 84 done  |
Start searching...Routing table for router 85 done  |
Start searching...Routing table for router 86 done  |
Start searching...Routing table for router 87 done  |
Start searching...Routing table for router 88 done  |
Start searching...Routing table for router 89 done  |
Start searching...Routing table for router 90 done  |
Start searching...Routing table for router 91 done  |
Start searching...Routing table for router 92 done  |
Start searching...Routing table for router 93 done  |
Start searching...Routing table for router 94 done  |
Start searching...Routing table for router 95 done  |
Start searching...Routing table for router 96 done  |
Start searching...Routing table for router 97 done  |
Start searching...Routing table for router 98 done  |
Start searching...Routing table for router 99 done  |
Start searching...Routing table for router 100 done  |
Start searching...Routing table for router 101 done  |
Start searching...Routing table for router 102 done  |
Start searching...Routing table for router 103 done  |
Start searching...Routing table for router 104 done  |
Start searching...Routing table for router 105 done  |
Start searching...Routing table for router 106 done  |
Start searching...Routing table for router 107 done  |
Start searching...Routing table for router 108 done  |
Start searching...Routing table for router 109 done  |
Start searching...Routing table for router 110 done  |
Start searching...Routing table for router 111 done  |
Start searching...Routing table for router 112 done  |
Start searching...Routing table for router 113 done  |
Start searching...Routing table for router 114 done  |
Start searching...Routing table for router 115 done  |
Start searching...Routing table for router 116 done  |
Start searching...Routing table for router 117 done  |
Start searching...Routing table for router 118 done  |
Start searching...Routing table for router 119 done  |
Start searching...Routing table for router 120 done  |
Start searching...Routing table for router 121 done  |
Start searching...Routing table for router 122 done  |
Start searching...Routing table for router 123 done  |
Start searching...Routing table for router 124 done  |
Start searching...Routing table for router 125 done  |
Start searching...Routing table for router 126 done  |
Start searching...Routing table for router 127 done  |
Start searching...Routing table for router 128 done  |
Start searching...Routing table for router 129 done  |
Start searching...Routing table for router 130 done  |
Start searching...Routing table for router 131 done  |
Start searching...Routing table for router 132 done  |
Start searching...Routing table for router 133 done  |
Start searching...Routing table for router 134 done  |
Start searching...Routing table for router 135 done  |
Start searching...Routing table for router 136 done  |
Start searching...Routing table for router 137 done  |
Start searching...Routing table for router 138 done  |
Start searching...Routing table for router 139 done  |
Start searching...Routing table for router 140 done  |
Start searching...Routing table for router 141 done  |
Start searching...Routing table for router 142 done  |
Start searching...Routing table for router 143 done  |
Start searching...Routing table for router 144 done  |
Start searching...Routing table for router 145 done  |
Start searching...Routing table for router 146 done  |
Start searching...Routing table for router 147 done  |
Start searching...Routing table for router 148 done  |
Start searching...Routing table for router 149 done  |
Start searching...Routing table for router 150 done  |
Start searching...Routing table for router 151 done  |
Start searching...Routing table for router 152 done  |
Start searching...Routing table for router 153 done  |
Start searching...Routing table for router 154 done  |
Start searching...Routing table for router 155 done  |
Start searching...Routing table for router 156 done  |
Start searching...Routing table for router 157 done  |
Start searching...Routing table for router 158 done  |
Start searching...Routing table for router 159 done  |
Start searching...Routing table for router 160 done  |
Start searching...Routing table for router 161 done  |
Start searching...Routing table for router 162 done  |
Start searching...Routing table for router 163 done  |
Start searching...Routing table for router 164 done  |
Start searching...Routing table for router 165 done  |
Start searching...Routing table for router 166 done  |
Start searching...Routing table for router 167 done  |
Start searching...Routing table for router 168 done  |
Start searching...Routing table for router 169 done  |
Start searching...Routing table for router 170 done  |
Start searching...Routing table for router 171 done  |
Start searching...Routing table for router 172 done  |
Start searching...Routing table for router 173 done  |
Start searching...Routing table for router 174 done  |
Start searching...Routing table for router 175 done  |
Start searching...Routing table for router 176 done  |
Start searching...Routing table for router 177 done  |
Start searching...Routing table for router 178 done  |
Start searching...Routing table for router 179 done  |
Start searching...Routing table for router 180 done  |
Start searching...Routing table for router 181 done  |
Start searching...Routing table for router 182 done  |
Start searching...Routing table for router 183 done  |
Start searching...Routing table for router 184 done  |
Start searching...Routing table for router 185 done  |
Start searching...Routing table for router 186 done  |
Start searching...Routing table for router 187 done  |
Start searching...Routing table for router 188 done  |
Start searching...Routing table for router 189 done  |
Start searching...Routing table for router 190 done  |
Start searching...Routing table for router 191 done  |
Start searching...Routing table for router 192 done  |
Start searching...Routing table for router 193 done  |
Start searching...Routing table for router 194 done  |
Start searching...Routing table for router 195 done  |
Start searching...Routing table for router 196 done  |
Start searching...Routing table for router 197 done  |
Start searching...Routing table for router 198 done  |
Start searching...Routing table for router 199 done  |
Start searching...Routing table for router 200 done  |
Start searching...Routing table for router 201 done  |
Start searching...Routing table for router 202 done  |
Start searching...Routing table for router 203 done  |
Start searching...Routing table for router 204 done  |
Start searching...Routing table for router 205 done  |
Start searching...Routing table for router 206 done  |
Start searching...Routing table for router 207 done  |
Start searching...Routing table for router 208 done  |
Start searching...Routing table for router 209 done  |
Start searching...Routing table for router 210 done  |
Start searching...Routing table for router 211 done  |
Start searching...Routing table for router 212 done  |
Start searching...Routing table for router 213 done  |
Start searching...Routing table for router 214 done  |
Start searching...Routing table for router 215 done  |
Start searching...Routing table for router 216 done  |
Start searching...Routing table for router 217 done  |
Start searching...Routing table for router 218 done  |
Start searching...Routing table for router 219 done  |
Start searching...Routing table for router 220 done  |
Start searching...Routing table for router 221 done  |
Start searching...Routing table for router 222 done  |
Start searching...Routing table for router 223 done  |
Start searching...Routing table for router 224 done  |
Start searching...Routing table for router 225 done  |
Start searching...Routing table for router 226 done  |
Start searching...Routing table for router 227 done  |
Start searching...Routing table for router 228 done  |
Start searching...Routing table for router 229 done  |
Start searching...Routing table for router 230 done  |
Start searching...Routing table for router 231 done  |
Start searching...Routing table for router 232 done  |
Start searching...Routing table for router 233 done  |
Start searching...Routing table for router 234 done  |
Start searching...Routing table for router 235 done  |
Start searching...Routing table for router 236 done  |
Start searching...Routing table for router 237 done  |
Start searching...Routing table for router 238 done  |
Start searching...Routing table for router 239 done  |
Start searching...Routing table for router 240 done  |
Start searching...Routing table for router 241 done  |
Start searching...Routing table for router 242 done  |
Start searching...Routing table for router 243 done  |
Start searching...Routing table for router 244 done  |
Start searching...Routing table for router 245 done  |
Start searching...Routing table for router 246 done  |
Start searching...Routing table for router 247 done  |
Start searching...Routing table for router 248 done  |
Start searching...Routing table for router 249 done  |
Start searching...Routing table for router 250 done  |
Start searching...Routing table for router 251 done  |
Start searching...Routing table for router 252 done  |
Start searching...Routing table for router 253 done  |
Start searching...Routing table for router 254 done  |
Start searching...Routing table for router 255 done  |
Start searching...Routing table for router 256 done  |
Start searching...Routing table for router 257 done  |
Start searching...Routing table for router 258 done  |
Start searching...Routing table for router 259 done  |
Start searching...Routing table for router 260 done  |
Start searching...Routing table for router 261 done  |
Start searching...Routing table for router 262 done  |
Start searching...Routing table for router 263 done  |
Start searching...Routing table for router 264 done  |
Start searching...Routing table for router 265 done  |
Start searching...Routing table for router 266 done  |
Start searching...Routing table for router 267 done  |
Start searching...Routing table for router 268 done  |
Start searching...Routing table for router 269 done  |
Start searching...Routing table for router 270 done  |
Start searching...Routing table for router 271 done  |
Start searching...Routing table for router 272 done  |
Start searching...Routing table for router 273 done  |
Start searching...Routing table for router 274 done  |
Start searching...Routing table for router 275 done  |
Start searching...Routing table for router 276 done  |
Start searching...Routing table for router 277 done  |
Start searching...Routing table for router 278 done  |
Start searching...Routing table for router 279 done  |
Start searching...Routing table for router 280 done  |
Start searching...Routing table for router 281 done  |
Start searching...Routing table for router 282 done  |
Start searching...Routing table for router 283 done  |
Start searching...Routing table for router 284 done  |
Start searching...Routing table for router 285 done  |
Start searching...Routing table for router 286 done  |
Start searching...Routing table for router 287 done  |
Start searching...Routing table for router 288 done  |
Start searching...Routing table for router 289 done  |
Start searching...Routing table for router 290 done  |
Start searching...Routing table for router 291 done  |
Start searching...Routing table for router 292 done  |
Start searching...Routing table for router 293 done  |
Start searching...Routing table for router 294 done  |
Start searching...Routing table for router 295 done  |
Start searching...Routing table for router 296 done  |
Start searching...Routing table for router 297 done  |
Start searching...Routing table for router 298 done  |
Start searching...Routing table for router 299 done  |
Start searching...Routing table for router 300 done  |
Start searching...Routing table for router 301 done  |
Start searching...Routing table for router 302 done  |
Start searching...Routing table for router 303 done  |
Start searching...Routing table for router 304 done  |
Start searching...Routing table for router 305 done  |
Start searching...Routing table for router 306 done  |
Start searching...Routing table for router 307 done  |
Start searching...Routing table for router 308 done  |
Start searching...Routing table for router 309 done  |
Start searching...Routing table for router 310 done  |
Start searching...Routing table for router 311 done  |
Start searching...Routing table for router 312 done  |
Start searching...Routing table for router 313 done  |
Start searching...Routing table for router 314 done  |
Start searching...Routing table for router 315 done  |
Start searching...Routing table for router 316 done  |
Start searching...Routing table for router 317 done  |
Start searching...Routing table for router 318 done  |
Start searching...Routing table for router 319 done  |
Start searching...Routing table for router 320 done  |
Start searching...Routing table for router 321 done  |
Start searching...Routing table for router 322 done  |
Start searching...Routing table for router 323 done  |
Start searching...Routing table for router 324 done  |
Start searching...Routing table for router 325 done  |
Start searching...Routing table for router 326 done  |
Start searching...Routing table for router 327 done  |
Start searching...Routing table for router 328 done  |
Start searching...Routing table for router 329 done  |
Start searching...Routing table for router 330 done  |
Start searching...Routing table for router 331 done  |
Start searching...Routing table for router 332 done  |
Start searching...Routing table for router 333 done  |
Start searching...Routing table for router 334 done  |
Start searching...Routing table for router 335 done  |
Start searching...Routing table for router 336 done  |
Start searching...Routing table for router 337 done  |
Start searching...Routing table for router 338 done  |
Start searching...Routing table for router 339 done  |
Start searching...Routing table for router 340 done  |
Start searching...Routing table for router 341 done  |
Start searching...Routing table for router 342 done  |
Start searching...Routing table for router 343 done  |
Start searching...Routing table for router 344 done  |
Start searching...Routing table for router 345 done  |
Start searching...Routing table for router 346 done  |
Start searching...Routing table for router 347 done  |
Start searching...Routing table for router 348 done  |
Start searching...Routing table for router 349 done  |
Start searching...Routing table for router 350 done  |
Start searching...Routing table for router 351 done  |
Start searching...Routing table for router 352 done  |
Start searching...Routing table for router 353 done  |
Start searching...Routing table for router 354 done  |
Start searching...Routing table for router 355 done  |
Start searching...Routing table for router 356 done  |
Start searching...Routing table for router 357 done  |
Start searching...Routing table for router 358 done  |
Start searching...Routing table for router 359 done  |
Start searching...Routing table for router 360 done  |
Start searching...Routing table for router 361 done  |
Start searching...Routing table for router 362 done  |
Start searching...Routing table for router 363 done  |
Start searching...Routing table for router 364 done  |
Start searching...Routing table for router 365 done  |
Start searching...Routing table for router 366 done  |
Start searching...Routing table for router 367 done  |
Start searching...Routing table for router 368 done  |
Start searching...Routing table for router 369 done  |
Start searching...Routing table for router 370 done  |
Start searching...Routing table for router 371 done  |
Start searching...Routing table for router 372 done  |
Start searching...Routing table for router 373 done  |
Start searching...Routing table for router 374 done  |
Start searching...Routing table for router 375 done  |
Start searching...Routing table for router 376 done  |
Start searching...Routing table for router 377 done  |
Start searching...Routing table for router 378 done  |
Start searching...Routing table for router 379 done  |
Start searching...Routing table for router 380 done  |
Start searching...Routing table for router 381 done  |
Start searching...Routing table for router 382 done  |
Start searching...Routing table for router 383 done  |
Start searching...Routing table for router 384 done  |
Start searching...Routing table for router 385 done  |
Start searching...Routing table for router 386 done  |
Start searching...Routing table for router 387 done  |
Start searching...Routing table for router 388 done  |
Start searching...Routing table for router 389 done  |
Start searching...Routing table for router 390 done  |
Start searching...Routing table for router 391 done  |
Start searching...Routing table for router 392 done  |
Start searching...Routing table for router 393 done  |
Start searching...Routing table for router 394 done  |
Start searching...Routing table for router 395 done  |
Start searching...Routing table for router 396 done  |
Start searching...Routing table for router 397 done  |
Start searching...Routing table for router 398 done  |
Start searching...Routing table for router 399 done  |
Start searching...Routing table for router 400 done  |
Start searching...Routing table for router 401 done  |
Start searching...Routing table for router 402 done  |
Start searching...Routing table for router 403 done  |
Start searching...Routing table for router 404 done  |
Start searching...Routing table for router 405 done  |
Start searching...Routing table for router 406 done  |
Start searching...Routing table for router 407 done  |
Start searching...Routing table for router 408 done  |
Start searching...Routing table for router 409 done  |
Start searching...Routing table for router 410 done  |
Start searching...Routing table for router 411 done  |
Start searching...Routing table for router 412 done  |
Start searching...Routing table for router 413 done  |
Start searching...Routing table for router 414 done  |
Start searching...Routing table for router 415 done  |
Start searching...Routing table for router 416 done  |
Start searching...Routing table for router 417 done  |
Start searching...Routing table for router 418 done  |
Start searching...Routing table for router 419 done  |
Start searching...Routing table for router 420 done  |
Start searching...Routing table for router 421 done  |
Start searching...Routing table for router 422 done  |
Start searching...Routing table for router 423 done  |
Start searching...Routing table for router 424 done  |
Start searching...Routing table for router 425 done  |
Start searching...Routing table for router 426 done  |
Start searching...Routing table for router 427 done  |
Start searching...Routing table for router 428 done  |
Start searching...Routing table for router 429 done  |
Start searching...Routing table for router 430 done  |
Start searching...Routing table for router 431 done  |
Start searching...Routing table for router 432 done  |
Start searching...Routing table for router 433 done  |
Start searching...Routing table for router 434 done  |
Start searching...Routing table for router 435 done  |
Start searching...Routing table for router 436 done  |
Start searching...Routing table for router 437 done  |
Start searching...Routing table for router 438 done  |
Start searching...Routing table for router 439 done  |
Start searching...Routing table for router 440 done  |
Start searching...Routing table for router 441 done  |
Start searching...Routing table for router 442 done  |
Start searching...Routing table for router 443 done  |
Start searching...Routing table for router 444 done  |
Start searching...Routing table for router 445 done  |
Start searching...Routing table for router 446 done  |
Start searching...Routing table for router 447 done  |
Start searching...Routing table for router 448 done  |
Start searching...Routing table for router 449 done  |
Start searching...Routing table for router 450 done  |
Start searching...Routing table for router 451 done  |
Start searching...Routing table for router 452 done  |
Start searching...Routing table for router 453 done  |
Start searching...Routing table for router 454 done  |
Start searching...Routing table for router 455 done  |
Start searching...Routing table for router 456 done  |
Start searching...Routing table for router 457 done  |
Start searching...Routing table for router 458 done  |
Start searching...Routing table for router 459 done  |
Start searching...Routing table for router 460 done  |
Start searching...Routing table for router 461 done  |
Start searching...Routing table for router 462 done  |
Start searching...Routing table for router 463 done  |
Start searching...Routing table for router 464 done  |
Start searching...Routing table for router 465 done  |
Start searching...Routing table for router 466 done  |
Start searching...Routing table for router 467 done  |
Start searching...Routing table for router 468 done  |
Start searching...Routing table for router 469 done  |
Start searching...Routing table for router 470 done  |
Start searching...Routing table for router 471 done  |
Start searching...Routing table for router 472 done  |
Start searching...Routing table for router 473 done  |
Start searching...Routing table for router 474 done  |
Start searching...Routing table for router 475 done  |
Start searching...Routing table for router 476 done  |
Start searching...Routing table for router 477 done  |
Start searching...Routing table for router 478 done  |
Start searching...Routing table for router 479 done  |
Start searching...Routing table for router 480 done  |
Start searching...Routing table for router 481 done  |
Start searching...Routing table for router 482 done  |
Start searching...Routing table for router 483 done  |
Start searching...Routing table for router 484 done  |
Start searching...Routing table for router 485 done  |
Start searching...Routing table for router 486 done  |
Start searching...Routing table for router 487 done  |
Start searching...Routing table for router 488 done  |
Start searching...Routing table for router 489 done  |
Start searching...Routing table for router 490 done  |
Start searching...Routing table for router 491 done  |
Start searching...Routing table for router 492 done  |
Start searching...Routing table for router 493 done  |
Start searching...Routing table for router 494 done  |
Start searching...Routing table for router 495 done  |
Start searching...Routing table for router 496 done  |
Start searching...Routing table for router 497 done  |
Start searching...Routing table for router 498 done  |
Start searching...Routing table for router 499 done  |
Start searching...Routing table for router 500 done  |
Start searching...Routing table for router 501 done  |
Start searching...Routing table for router 502 done  |
Start searching...Routing table for router 503 done  |
Start searching...Routing table for router 504 done  |
Start searching...Routing table for router 505 done  |
Start searching...Routing table for router 506 done  |
Start searching...Routing table for router 507 done  |
Start searching...Routing table for router 508 done  |
Start searching...Routing table for router 509 done  |
Start searching...Routing table for router 510 done  |
Start searching...Routing table for router 511 done  |
Start searching...Routing table for router 512 done  |
Start searching...Routing table for router 513 done  |
Start searching...Routing table for router 514 done  |
Start searching...Routing table for router 515 done  |
Start searching...Routing table for router 516 done  |
Start searching...Routing table for router 517 done  |
Start searching...Routing table for router 518 done  |
Start searching...Routing table for router 519 done  |
Start searching...Routing table for router 520 done  |
Start searching...Routing table for router 521 done  |
Start searching...Routing table for router 522 done  |
Start searching...Routing table for router 523 done  |
Start searching...Routing table for router 524 done  |
Start searching...Routing table for router 525 done  |
Start searching...Routing table for router 526 done  |
Start searching...Routing table for router 527 done  |
Start searching...Routing table for router 528 done  |
Start searching...Routing table for router 529 done  |
Start searching...Routing table for router 530 done  |
Start searching...Routing table for router 531 done  |
Start searching...Routing table for router 532 done  |
Start searching...Routing table for router 533 done  |
Start searching...Routing table for router 534 done  |
Start searching...Routing table for router 535 done  |
Start searching...Routing table for router 536 done  |
Start searching...Routing table for router 537 done  |
Start searching...Routing table for router 538 done  |
Start searching...Routing table for router 539 done  |
Start searching...Routing table for router 540 done  |
Start searching...Routing table for router 541 done  |
Start searching...Routing table for router 542 done  |
Start searching...Routing table for router 543 done  |
Start searching...Routing table for router 544 done  |
Start searching...Routing table for router 545 done  |
Start searching...Routing table for router 546 done  |
Start searching...Routing table for router 547 done  |
Start searching...Routing table for router 548 done  |
Start searching...Routing table for router 549 done  |
Start searching...Routing table for router 550 done  |
Start searching...Routing table for router 551 done  |
Start searching...Routing table for router 552 done  |
Start searching...Routing table for router 553 done  |
Start searching...Routing table for router 554 done  |
Start searching...Routing table for router 555 done  |
Start searching...Routing table for router 556 done  |
Start searching...Routing table for router 557 done  |
Start searching...Routing table for router 558 done  |
Start searching...Routing table for router 559 done  |
Start searching...Routing table for router 560 done  |
Start searching...Routing table for router 561 done  |
Start searching...Routing table for router 562 done  |
Start searching...Routing table for router 563 done  |
Start searching...Routing table for router 564 done  |
Start searching...Routing table for router 565 done  |
Start searching...Routing table for router 566 done  |
Start searching...Routing table for router 567 done  |
Start searching...Routing table for router 568 done  |
Start searching...Routing table for router 569 done  |
Start searching...Routing table for router 570 done  |
Start searching...Routing table for router 571 done  |
Start searching...Routing table for router 572 done  |
Start searching...Routing table for router 573 done  |
Start searching...Routing table for router 574 done  |
Start searching...Routing table for router 575 done  |
Start searching...Routing table for router 576 done  |
Start searching...Routing table for router 577 done  |
Start searching...Routing table for router 578 done  |
Start searching...Routing table for router 579 done  |
Start searching...Routing table for router 580 done  |
Start searching...Routing table for router 581 done  |
Start searching...Routing table for router 582 done  |
Start searching...Routing table for router 583 done  |
Start searching...Routing table for router 584 done  |
Start searching...Routing table for router 585 done  |
Start searching...Routing table for router 586 done  |
Start searching...Routing table for router 587 done  |
Start searching...Routing table for router 588 done  |
Start searching...Routing table for router 589 done  |
Start searching...Routing table for router 590 done  |
Start searching...Routing table for router 591 done  |
Start searching...Routing table for router 592 done  |
Start searching...Routing table for router 593 done  |
Start searching...Routing table for router 594 done  |
Start searching...Routing table for router 595 done  |
Start searching...Routing table for router 596 done  |
Start searching...Routing table for router 597 done  |
Start searching...Routing table for router 598 done  |
Start searching...Routing table for router 599 done  |
Start searching...Routing table for router 600 done  |
Start searching...Routing table for router 601 done  |
Start searching...Routing table for router 602 done  |
Start searching...Routing table for router 603 done  |
Start searching...Routing table for router 604 done  |
Start searching...Routing table for router 605 done  |
Start searching...Routing table for router 606 done  |
Start searching...Routing table for router 607 done  |
Start searching...Routing table for router 608 done  |
Start searching...Routing table for router 609 done  |
Start searching...Routing table for router 610 done  |
Start searching...Routing table for router 611 done  |
Start searching...Routing table for router 612 done  |
Start searching...Routing table for router 613 done  |
Start searching...Routing table for router 614 done  |
Start searching...Routing table for router 615 done  |
Start searching...Routing table for router 616 done  |
Start searching...Routing table for router 617 done  |
Start searching...Routing table for router 618 done  |
Start searching...Routing table for router 619 done  |
Start searching...Routing table for router 620 done  |
Start searching...Routing table for router 621 done  |
Start searching...Routing table for router 622 done  |
Start searching...Routing table for router 623 done  |
Start searching...Routing table for router 624 done  |
Start searching...Routing table for router 625 done  |
Start searching...Routing table for router 626 done  |
Start searching...Routing table for router 627 done  |
Start searching...Routing table for router 628 done  |
Start searching...Routing table for router 629 done  |
Start searching...Routing table for router 630 done  |
Start searching...Routing table for router 631 done  |
Start searching...Routing table for router 632 done  |
Start searching...Routing table for router 633 done  |
Start searching...Routing table for router 634 done  |
Start searching...Routing table for router 635 done  |
Start searching...Routing table for router 636 done  |
Start searching...Routing table for router 637 done  |
Start searching...Routing table for router 638 done  |
Start searching...Routing table for router 639 done  |
Start searching...Routing table for router 640 done  |
Start searching...Routing table for router 641 done  |
Start searching...Routing table for router 642 done  |
Start searching...Routing table for router 643 done  |
Start searching...Routing table for router 644 done  |
Start searching...Routing table for router 645 done  |
Start searching...Routing table for router 646 done  |
Start searching...Routing table for router 647 done  |
Start searching...Routing table for router 648 done  |
Start searching...Routing table for router 649 done  |
Start searching...Routing table for router 650 done  |
Start searching...Routing table for router 651 done  |
Start searching...Routing table for router 652 done  |
Start searching...Routing table for router 653 done  |
Start searching...Routing table for router 654 done  |
Start searching...Routing table for router 655 done  |
Start searching...Routing table for router 656 done  |
Start searching...Routing table for router 657 done  |
Start searching...Routing table for router 658 done  |
Start searching...Routing table for router 659 done  |
Start searching...Routing table for router 660 done  |
Start searching...Routing table for router 661 done  |
Start searching...Routing table for router 662 done  |
Start searching...Routing table for router 663 done  |
Start searching...Routing table for router 664 done  |
Start searching...Routing table for router 665 done  |
Start searching...Routing table for router 666 done  |
Start searching...Routing table for router 667 done  |
Start searching...Routing table for router 668 done  |
Start searching...Routing table for router 669 done  |
Start searching...Routing table for router 670 done  |
Start searching...Routing table for router 671 done  |
Start searching...Routing table for router 672 done  |
Start searching...Routing table for router 673 done  |
Start searching...Routing table for router 674 done  |
Start searching...Routing table for router 675 done  |
Start searching...Routing table for router 676 done  |
Start searching...Routing table for router 677 done  |
Start searching...Routing table for router 678 done  |
Start searching...Routing table for router 679 done  |
Start searching...Routing table for router 680 done  |
Start searching...Routing table for router 681 done  |
Start searching...Routing table for router 682 done  |
Start searching...Routing table for router 683 done  |
Start searching...Routing table for router 684 done  |
Start searching...Routing table for router 685 done  |
Start searching...Routing table for router 686 done  |
Start searching...Routing table for router 687 done  |
Start searching...Routing table for router 688 done  |
Start searching...Routing table for router 689 done  |
Start searching...Routing table for router 690 done  |
Start searching...Routing table for router 691 done  |
Start searching...Routing table for router 692 done  |
Start searching...Routing table for router 693 done  |
Start searching...Routing table for router 694 done  |
Start searching...Routing table for router 695 done  |
Start searching...Routing table for router 696 done  |
Start searching...Routing table for router 697 done  |
Start searching...Routing table for router 698 done  |
Start searching...Routing table for router 699 done  |
Start searching...Routing table for router 700 done  |
Start searching...Routing table for router 701 done  |
Start searching...Routing table for router 702 done  |
Start searching...Routing table for router 703 done  |
Start searching...Routing table for router 704 done  |
Start searching...Routing table for router 705 done  |
Start searching...Routing table for router 706 done  |
Start searching...Routing table for router 707 done  |
Start searching...Routing table for router 708 done  |
Start searching...Routing table for router 709 done  |
Start searching...Routing table for router 710 done  |
Start searching...Routing table for router 711 done  |
Start searching...Routing table for router 712 done  |
Start searching...Routing table for router 713 done  |
Start searching...Routing table for router 714 done  |
Start searching...Routing table for router 715 done  |
Start searching...Routing table for router 716 done  |
Start searching...Routing table for router 717 done  |
Start searching...Routing table for router 718 done  |
Start searching...Routing table for router 719 done  |
Start searching...Routing table for router 720 done  |
Start searching...Routing table for router 721 done  |
Start searching...Routing table for router 722 done  |
Start searching...Routing table for router 723 done  |
Start searching...Routing table for router 724 done  |
Start searching...Routing table for router 725 done  |
Start searching...Routing table for router 726 done  |
Start searching...Routing table for router 727 done  |
Start searching...Routing table for router 728 done  |
Start searching...Routing table for router 729 done  |
Start searching...Routing table for router 730 done  |
Start searching...Routing table for router 731 done  |
Start searching...Routing table for router 732 done  |
Start searching...Routing table for router 733 done  |
Start searching...Routing table for router 734 done  |
Start searching...Routing table for router 735 done  |
Start searching...Routing table for router 736 done  |
Start searching...Routing table for router 737 done  |
Start searching...Routing table for router 738 done  |
Start searching...Routing table for router 739 done  |
Start searching...Routing table for router 740 done  |
Start searching...Routing table for router 741 done  |
Start searching...Routing table for router 742 done  |
Start searching...Routing table for router 743 done  |
Start searching...Routing table for router 744 done  |
Start searching...Routing table for router 745 done  |
Start searching...Routing table for router 746 done  |
Start searching...Routing table for router 747 done  |
Start searching...Routing table for router 748 done  |
Start searching...Routing table for router 749 done  |
Start searching...Routing table for router 750 done  |
Start searching...Routing table for router 751 done  |
Start searching...Routing table for router 752 done  |
Start searching...Routing table for router 753 done  |
Start searching...Routing table for router 754 done  |
Start searching...Routing table for router 755 done  |
Start searching...Routing table for router 756 done  |
Start searching...Routing table for router 757 done  |
Start searching...Routing table for router 758 done  |
Start searching...Routing table for router 759 done  |
Start searching...Routing table for router 760 done  |
Start searching...Routing table for router 761 done  |
Start searching...Routing table for router 762 done  |
Start searching...Routing table for router 763 done  |
Start searching...Routing table for router 764 done  |
Start searching...Routing table for router 765 done  |
Start searching...Routing table for router 766 done  |
Start searching...Routing table for router 767 done  |
Start searching...Routing table for router 768 done  |
Start searching...Routing table for router 769 done  |
Start searching...Routing table for router 770 done  |
Start searching...Routing table for router 771 done  |
Start searching...Routing table for router 772 done  |
Start searching...Routing table for router 773 done  |
Start searching...Routing table for router 774 done  |
Start searching...Routing table for router 775 done  |
Start searching...Routing table for router 776 done  |
Start searching...Routing table for router 777 done  |
Start searching...Routing table for router 778 done  |
Start searching...Routing table for router 779 done  |
Start searching...Routing table for router 780 done  |
Start searching...Routing table for router 781 done  |
Start searching...Routing table for router 782 done  |
Start searching...Routing table for router 783 done  |
Start searching...Routing table for router 784 done  |
Start searching...Routing table for router 785 done  |
Start searching...Routing table for router 786 done  |
Start searching...Routing table for router 787 done  |
Start searching...Routing table for router 788 done  |
Start searching...Routing table for router 789 done  |
Start searching...Routing table for router 790 done  |
Start searching...Routing table for router 791 done  |
Start searching...Routing table for router 792 done  |
Start searching...Routing table for router 793 done  |
Start searching...Routing table for router 794 done  |
Start searching...Routing table for router 795 done  |
Start searching...Routing table for router 796 done  |
Start searching...Routing table for router 797 done  |
Start searching...Routing table for router 798 done  |
Start searching...Routing table for router 799 done  |
Start searching...Routing table for router 800 done  |
Start searching...Routing table for router 801 done  |
Start searching...Routing table for router 802 done  |
Start searching...Routing table for router 803 done  |
Start searching...Routing table for router 804 done  |
Start searching...Routing table for router 805 done  |
Start searching...Routing table for router 806 done  |
Start searching...Routing table for router 807 done  |
Start searching...Routing table for router 808 done  |
Start searching...Routing table for router 809 done  |
Start searching...Routing table for router 810 done  |
Start searching...Routing table for router 811 done  |
Start searching...Routing table for router 812 done  |
Start searching...Routing table for router 813 done  |
Start searching...Routing table for router 814 done  |
Start searching...Routing table for router 815 done  |
Start searching...Routing table for router 816 done  |
Start searching...Routing table for router 817 done  |
Start searching...Routing table for router 818 done  |
Start searching...Routing table for router 819 done  |
Start searching...Routing table for router 820 done  |
Start searching...Routing table for router 821 done  |
Start searching...Routing table for router 822 done  |
Start searching...Routing table for router 823 done  |
Start searching...Routing table for router 824 done  |
Start searching...Routing table for router 825 done  |
Start searching...Routing table for router 826 done  |
Start searching...Routing table for router 827 done  |
Start searching...Routing table for router 828 done  |
Start searching...Routing table for router 829 done  |
Start searching...Routing table for router 830 done  |
Start searching...Routing table for router 831 done  |
Start searching...Routing table for router 832 done  |
Start searching...Routing table for router 833 done  |
Start searching...Routing table for router 834 done  |
Start searching...Routing table for router 835 done  |
Start searching...Routing table for router 836 done  |
Start searching...Routing table for router 837 done  |
Start searching...Routing table for router 838 done  |
Start searching...Routing table for router 839 done  |
Start searching...Routing table for router 840 done  |
Start searching...Routing table for router 841 done  |
Start searching...Routing table for router 842 done  |
Start searching...Routing table for router 843 done  |
Start searching...Routing table for router 844 done  |
Start searching...Routing table for router 845 done  |
Start searching...Routing table for router 846 done  |
Start searching...Routing table for router 847 done  |
Start searching...Routing table for router 848 done  |
Start searching...Routing table for router 849 done  |
Start searching...Routing table for router 850 done  |
Start searching...Routing table for router 851 done  |
Start searching...Routing table for router 852 done  |
Start searching...Routing table for router 853 done  |
Start searching...Routing table for router 854 done  |
Start searching...Routing table for router 855 done  |
Start searching...Routing table for router 856 done  |
Start searching...Routing table for router 857 done  |
Start searching...Routing table for router 858 done  |
Start searching...Routing table for router 859 done  |
Start searching...Routing table for router 860 done  |
Start searching...Routing table for router 861 done  |
Start searching...Routing table for router 862 done  |
Start searching...Routing table for router 863 done  |
Start searching...Routing table for router 864 done  |
Start searching...Routing table for router 865 done  |
Start searching...Routing table for router 866 done  |
Start searching...Routing table for router 867 done  |
Start searching...Routing table for router 868 done  |
Start searching...Routing table for router 869 done  |
Start searching...Routing table for router 870 done  |
Start searching...Routing table for router 871 done  |
Start searching...Routing table for router 872 done  |
Start searching...Routing table for router 873 done  |
Start searching...Routing table for router 874 done  |
Start searching...Routing table for router 875 done  |
Start searching...Routing table for router 876 done  |
Start searching...Routing table for router 877 done  |
Start searching...Routing table for router 878 done  |
Start searching...Routing table for router 879 done  |
Start searching...Routing table for router 880 done  |
Start searching...Routing table for router 881 done  |
Start searching...Routing table for router 882 done  |
Start searching...Routing table for router 883 done  |
Start searching...Routing table for router 884 done  |
Start searching...Routing table for router 885 done  |
Start searching...Routing table for router 886 done  |
Start searching...Routing table for router 887 done  |
Start searching...Routing table for router 888 done  |
Start searching...Routing table for router 889 done  |
Start searching...Routing table for router 890 done  |
Start searching...Routing table for router 891 done  |
Start searching...Routing table for router 892 done  |
Start searching...Routing table for router 893 done  |
Start searching...Routing table for router 894 done  |
Start searching...Routing table for router 895 done  |
Start searching...Routing table for router 896 done  |
Start searching...Routing table for router 897 done  |
Start searching...Routing table for router 898 done  |
Start searching...Routing table for router 899 done  |
Start searching...Routing table for router 900 done  |
Start searching...Routing table for router 901 done  |
Start searching...Routing table for router 902 done  |
Start searching...Routing table for router 903 done  |
Start searching...Routing table for router 904 done  |
Start searching...Routing table for router 905 done  |
Start searching...Routing table for router 906 done  |
Start searching...Routing table for router 907 done  |
Start searching...Routing table for router 908 done  |
Start searching...Routing table for router 909 done  |
Start searching...Routing table for router 910 done  |
Start searching...Routing table for router 911 done  |
Start searching...Routing table for router 912 done  |
Start searching...Routing table for router 913 done  |
Start searching...Routing table for router 914 done  |
Start searching...Routing table for router 915 done  |
Start searching...Routing table for router 916 done  |
Start searching...Routing table for router 917 done  |
Start searching...Routing table for router 918 done  |
Start searching...Routing table for router 919 done  |
Start searching...Routing table for router 920 done  |
Start searching...Routing table for router 921 done  |
Start searching...Routing table for router 922 done  |
Start searching...Routing table for router 923 done  |
Start searching...Routing table for router 924 done  |
Start searching...Routing table for router 925 done  |
Start searching...Routing table for router 926 done  |
Start searching...Routing table for router 927 done  |
Start searching...Routing table for router 928 done  |
Start searching...Routing table for router 929 done  |
Start searching...Routing table for router 930 done  |
Start searching...Routing table for router 931 done  |
Start searching...Routing table for router 932 done  |
Start searching...Routing table for router 933 done  |
Start searching...Routing table for router 934 done  |
Start searching...Routing table for router 935 done  |
Start searching...Routing table for router 936 done  |
Start searching...Routing table for router 937 done  |
Start searching...Routing table for router 938 done  |
Start searching...Routing table for router 939 done  |
Start searching...Routing table for router 940 done  |
Start searching...Routing table for router 941 done  |
Start searching...Routing table for router 942 done  |
Start searching...Routing table for router 943 done  |
Start searching...Routing table for router 944 done  |
Start searching...Routing table for router 945 done  |
Start searching...Routing table for router 946 done  |
Start searching...Routing table for router 947 done  |
Start searching...Routing table for router 948 done  |
Start searching...Routing table for router 949 done  |
Start searching...Routing table for router 950 done  |
Start searching...Routing table for router 951 done  |
Start searching...Routing table for router 952 done  |
Start searching...Routing table for router 953 done  |
Start searching...Routing table for router 954 done  |
Start searching...Routing table for router 955 done  |
Start searching...Routing table for router 956 done  |
Start searching...Routing table for router 957 done  |
Start searching...Routing table for router 958 done  |
Start searching...Routing table for router 959 done  |
Start searching...Routing table for router 960 done  |
Start searching...Routing table for router 961 done  |
Start searching...Routing table for router 962 done  |
Start searching...Routing table for router 963 done  |
Start searching...Routing table for router 964 done  |
Start searching...Routing table for router 965 done  |
Start searching...Routing table for router 966 done  |
Start searching...Routing table for router 967 done  |
Start searching...Routing table for router 968 done  |
Start searching...Routing table for router 969 done  |
Start searching...Routing table for router 970 done  |
Start searching...Routing table for router 971 done  |
Start searching...Routing table for router 972 done  |
Start searching...Routing table for router 973 done  |
Start searching...Routing table for router 974 done  |
Start searching...Routing table for router 975 done  |
Start searching...Routing table for router 976 done  |
Start searching...Routing table for router 977 done  |
Start searching...Routing table for router 978 done  |
Start searching...Routing table for router 979 done  |
Start searching...Routing table for router 980 done  |
Start searching...Routing table for router 981 done  |
Start searching...Routing table for router 982 done  |
Start searching...Routing table for router 983 done  |
Start searching...Routing table for router 984 done  |
Start searching...Routing table for router 985 done  |
Start searching...Routing table for router 986 done  |
Start searching...Routing table for router 987 done  |
Start searching...Routing table for router 988 done  |
Start searching...Routing table for router 989 done  |
Start searching...Routing table for router 990 done  |
Start searching...Routing table for router 991 done  |
Start searching...Routing table for router 992 done  |
Start searching...Routing table for router 993 done  |
Start searching...Routing table for router 994 done  |
Start searching...Routing table for router 995 done  |
Start searching...Routing table for router 996 done  |
Start searching...Routing table for router 997 done  |
Start searching...Routing table for router 998 done  |
Start searching...Routing table for router 999 done  |
Start searching...Routing table for router 1000 done  |
Start searching...Routing table for router 1001 done  |
Start searching...Routing table for router 1002 done  |
Start searching...Routing table for router 1003 done  |
Start searching...Routing table for router 1004 done  |
Start searching...Routing table for router 1005 done  |
Start searching...Routing table for router 1006 done  |
Start searching...Routing table for router 1007 done  |
Start searching...Routing table for router 1008 done  |
Start searching...Routing table for router 1009 done  |
Start searching...Routing table for router 1010 done  |
Start searching...Routing table for router 1011 done  |
Start searching...Routing table for router 1012 done  |
Start searching...Routing table for router 1013 done  |
Start searching...Routing table for router 1014 done  |
Start searching...Routing table for router 1015 done  |
Start searching...Routing table for router 1016 done  |
Start searching...Routing table for router 1017 done  |
Start searching...Routing table for router 1018 done  |
Start searching...Routing table for router 1019 done  |
Start searching...Routing table for router 1020 done  |
Start searching...Routing table for router 1021 done  |
Start searching...Routing table for router 1022 done  |
Start searching...Routing table for router 1023 done  |

========================== Build Routing table done  =====================

Saving routing table...
========================== Building Bad traffic pattern, type 2... ============================
=================== Finished building bad traffic pattern... ====================
Sum of nodes sending: 1024
Sum of nodes: 1024
0
Class 0:
Minimum packet latency = 5
Average packet latency = 15.6874
Maximum packet latency = 21
Minimum network latency = 5
Average network latency = 15.6874
Maximum network latency = 21
Slowest packet = 355
Minimum flit latency = 5
Average flit latency = 15.6874
Maximum flit latency = 21
Slowest flit = 355
Minimum fragmentation = 0
Average fragmentation = 0
Maximum fragmentation = 0
Minimum injected packet rate = 0 (at node 207)
Average injected packet rate = 0.00991406
Maximum injected packet rate = 0.026 (at node 107)
Minimum accepted packet rate = 0 (at node 218)
Average accepted packet rate = 0.0095918
Maximum accepted packet rate = 0.026 (at node 294)
Minimum injected flit rate = 0 (at node 207)
Average injected flit rate = 0.00991406
Maximum injected flit rate = 0.026 (at node 107)
Minimum accepted flit rate = 0 (at node 218)
Average accepted flit rate = 0.0095918
Maximum accepted flit rate = 0.026 (at node 294)
Average injected packet length = 1
Average accepted packet length = 1
Total in-flight flits = 165 (0 measured)
latency change    = 1
throughput change = 1
0
Class 0:
Minimum packet latency = 5
Average packet latency = 15.7076
Maximum packet latency = 21
Minimum network latency = 5
Average network latency = 15.7076
Maximum network latency = 21
Slowest packet = 355
Minimum flit latency = 5
Average flit latency = 15.7076
Maximum flit latency = 21
Slowest flit = 355
Minimum fragmentation = 0
Average fragmentation = 0
Maximum fragmentation = 0
Minimum injected packet rate = 0.001 (at node 787)
Average injected packet rate = 0.00991211
Maximum injected packet rate = 0.023 (at node 702)
Minimum accepted packet rate = 0.002 (at node 19)
Average accepted packet rate = 0.00976074
Maximum accepted packet rate = 0.02 (at node 115)
Minimum injected flit rate = 0.001 (at node 787)
Average injected flit rate = 0.00991211
Maximum injected flit rate = 0.023 (at node 702)
Minimum accepted flit rate = 0.002 (at node 19)
Average accepted flit rate = 0.00976074
Maximum accepted flit rate = 0.02 (at node 115)
Average injected packet length = 1
Average accepted packet length = 1
Total in-flight flits = 155 (0 measured)
latency change    = 0.00128075
throughput change = 0.0173087
0
Class 0:
Minimum packet latency = 5
Average packet latency = 15.7965
Maximum packet latency = 21
Minimum network latency = 5
Average network latency = 15.7965
Maximum network latency = 21
Slowest packet = 10116
Minimum flit latency = 5
Average flit latency = 15.7965
Maximum flit latency = 21
Slowest flit = 10116
Minimum fragmentation = 0
Average fragmentation = 0
Maximum fragmentation = 0
Minimum injected packet rate = 0 (at node 75)
Average injected packet rate = 0.00993359
Maximum injected packet rate = 0.026 (at node 815)
Minimum accepted packet rate = 0 (at node 183)
Average accepted packet rate = 0.00995508
Maximum accepted packet rate = 0.024 (at node 456)
Minimum injected flit rate = 0 (at node 75)
Average injected flit rate = 0.00993359
Maximum injected flit rate = 0.026 (at node 815)
Minimum accepted flit rate = 0 (at node 183)
Average accepted flit rate = 0.00995508
Maximum accepted flit rate = 0.024 (at node 456)
Average injected packet length = 1
Average accepted packet length = 1
Total in-flight flits = 144 (0 measured)
latency change    = 0.00563371
throughput change = 0.0195213
Warmed up ...Time used is 1500 cycles
1
Class 0:
Minimum packet latency = 5
Average packet latency = 15.7287
Maximum packet latency = 21
Minimum network latency = 5
Average network latency = 15.7287
Maximum network latency = 21
Slowest packet = 15296
Minimum flit latency = 5
Average flit latency = 15.7381
Maximum flit latency = 21
Slowest flit = 15296
Minimum fragmentation = 0
Average fragmentation = 0
Maximum fragmentation = 0
Minimum injected packet rate = 0 (at node 215)
Average injected packet rate = 0.0101816
Maximum injected packet rate = 0.028 (at node 602)
Minimum accepted packet rate = 0 (at node 39)
Average accepted packet rate = 0.0101504
Maximum accepted packet rate = 0.028 (at node 683)
Minimum injected flit rate = 0 (at node 215)
Average injected flit rate = 0.0101816
Maximum injected flit rate = 0.028 (at node 602)
Minimum accepted flit rate = 0 (at node 39)
Average accepted flit rate = 0.0101504
Maximum accepted flit rate = 0.028 (at node 683)
Average injected packet length = 1
Average accepted packet length = 1
Total in-flight flits = 160 (160 measured)
latency change    = 0.00431511
throughput change = 0.0192419
1
Class 0:
Minimum packet latency = 5
Average packet latency = 15.7321
Maximum packet latency = 21
Minimum network latency = 5
Average network latency = 15.7321
Maximum network latency = 21
Slowest packet = 15296
Minimum flit latency = 5
Average flit latency = 15.7368
Maximum flit latency = 21
Slowest flit = 15296
Minimum fragmentation = 0
Average fragmentation = 0
Maximum fragmentation = 0
Minimum injected packet rate = 0.002 (at node 215)
Average injected packet rate = 0.0100791
Maximum injected packet rate = 0.024 (at node 602)
Minimum accepted packet rate = 0.002 (at node 298)
Average accepted packet rate = 0.0100635
Maximum accepted packet rate = 0.023 (at node 683)
Minimum injected flit rate = 0.002 (at node 215)
Average injected flit rate = 0.0100791
Maximum injected flit rate = 0.024 (at node 602)
Minimum accepted flit rate = 0.002 (at node 298)
Average accepted flit rate = 0.0100635
Maximum accepted flit rate = 0.023 (at node 683)
Average injected packet length = 1
Average accepted packet length = 1
Total in-flight flits = 160 (160 measured)
latency change    = 0.000218467
throughput change = 0.00863658
1
Class 0:
Minimum packet latency = 5
Average packet latency = 15.7362
Maximum packet latency = 21
Minimum network latency = 5
Average network latency = 15.7362
Maximum network latency = 21
Slowest packet = 15296
Minimum flit latency = 5
Average flit latency = 15.7393
Maximum flit latency = 21
Slowest flit = 15296
Minimum fragmentation = 0
Average fragmentation = 0
Maximum fragmentation = 0
Minimum injected packet rate = 0.002 (at node 215)
Average injected packet rate = 0.0101263
Maximum injected packet rate = 0.018 (at node 180)
Minimum accepted packet rate = 0.00266667 (at node 427)
Average accepted packet rate = 0.0101354
Maximum accepted packet rate = 0.0193333 (at node 415)
Minimum injected flit rate = 0.002 (at node 215)
Average injected flit rate = 0.0101263
Maximum injected flit rate = 0.018 (at node 180)
Minimum accepted flit rate = 0.00266667 (at node 427)
Average accepted flit rate = 0.0101354
Maximum accepted flit rate = 0.0193333 (at node 415)
Average injected packet length = 1
Average accepted packet length = 1
Total in-flight flits = 130 (130 measured)
latency change    = 0.000259108
throughput change = 0.00709789
Draining all recorded packets ...
Draining remaining packets ...
Time taken is 3042 cycles
====== Traffic class 0 ======
Overall minimum packet latency = 5 (1 samples)
Overall average packet latency = 15.7349 (1 samples)
Overall maximum packet latency = 21 (1 samples)
Overall minimum network latency = 5 (1 samples)
Overall average network latency = 15.7349 (1 samples)
Overall maximum network latency = 21 (1 samples)
Overall minimum flit latency = 5 (1 samples)
Overall average flit latency = 15.7418 (1 samples)
Overall maximum flit latency = 21 (1 samples)
Overall minimum fragmentation = 0 (1 samples)
Overall average fragmentation = 0 (1 samples)
Overall maximum fragmentation = 0 (1 samples)
Overall minimum injected packet rate = 0.002 (1 samples)
Overall average injected packet rate = 0.0101263 (1 samples)
Overall maximum injected packet rate = 0.018 (1 samples)
Overall minimum accepted packet rate = 0.00266667 (1 samples)
Overall average accepted packet rate = 0.0101354 (1 samples)
Overall maximum accepted packet rate = 0.0193333 (1 samples)
Overall minimum injected flit rate = 0.002 (1 samples)
Overall average injected flit rate = 0.0101263 (1 samples)
Overall maximum injected flit rate = 0.018 (1 samples)
Overall minimum accepted flit rate = 0.00266667 (1 samples)
Overall average accepted flit rate = 0.0101354 (1 samples)
Overall maximum accepted flit rate = 0.0193333 (1 samples)
Overall average injected packet size = 1 (1 samples)
Overall average accepted packet size = 1 (1 samples)
Overall average hops = 4.57445 (1 samples)
Total run time 37.1782
