BEGIN Configuration File: ./LH-HC.conf
injection_rate = 0.01;
traffic = uniform;
use_size_power_of_two = no;
routing_function = min;
vc_buf_size = 16;
network_file = LH-HC.7.bsconf;
load_routing_file = no;
routing_table_file = LH-HC.7.bsconf;
topology = anynet;
use_noc_latency = 0;
hold_switch_for_packet=0;

k = 1;

packet_size  = 1;
num_vcs      = 4;
vc_allocator = separable_input_first; 
sw_allocator = separable_input_first;

alloc_iters   = 1;
sample_period = 500;

wait_for_tail_credit = 0;
use_read_write       = 0;

credit_delay   = 2;
routing_delay  = 0;
vc_alloc_delay = 1;
sw_alloc_delay = 1;
st_final_delay = 1;

input_speedup     = 1;
output_speedup    = 1;
internal_speedup  = 2.0;

warmup_periods = 3;
sim_count      = 1;

priority = none;
injection_rate_uses_flits=1;
injection_rate = 0.01;
traffic = uniform;
use_size_power_of_two = no;
routing_function = min;
vc_buf_size = 16;
network_file = LH-HC.7.bsconf;
load_routing_file = no;
routing_table_file = LH-HC.7.bsconf;
topology = anynet;
use_noc_latency = 0;
hold_switch_for_packet=0;

k = 1;

packet_size  = 1;
num_vcs      = 4;
vc_allocator = separable_input_first; 
sw_allocator = separable_input_first;

alloc_iters   = 1;
sample_period = 500;

wait_for_tail_credit = 0;
use_read_write       = 0;

credit_delay   = 2;
routing_delay  = 0;
vc_alloc_delay = 1;
sw_alloc_delay = 1;
st_final_delay = 1;

input_speedup     = 1;
output_speedup    = 1;
internal_speedup  = 2.0;

warmup_periods = 3;
sim_count      = 1;

priority = none;
injection_rate_uses_flits=1;
injection_rate = 0.01;
traffic = uniform;
use_size_power_of_two = no;
routing_function = min;
vc_buf_size = 16;
network_file = LH-HC.7.bsconf;
load_routing_file = no;
routing_table_file = LH-HC.7.route;
topology = anynet;
use_noc_latency = 0;
hold_switch_for_packet=0;

k = 1;

packet_size  = 1;
num_vcs      = 4;
vc_allocator = separable_input_first; 
sw_allocator = separable_input_first;

alloc_iters   = 1;
sample_period = 500;

wait_for_tail_credit = 0;
use_read_write       = 0;

credit_delay   = 2;
routing_delay  = 0;
vc_alloc_delay = 1;
sw_alloc_delay = 1;
st_final_delay = 1;

input_speedup     = 1;
output_speedup    = 1;
internal_speedup  = 2.0;

warmup_periods = 3;
sim_count      = 1;

priority = none;
injection_rate_uses_flits=1;

END Configuration File: ./LH-HC.conf
========================Network File Parsed=================
******************node listing**********************

****************router to node listing*************

*****************router to router listing************
Number of nodes: 128
Number of routers: 128
==========================Node to Router =====================
==========================Router to Router =====================
========================== Build Routing table  =====================
Start searching...Routing table for router 0 done  |
Start searching...Routing table for router 1 done  |
Start searching...Routing table for router 2 done  |
Start searching...Routing table for router 3 done  |
Start searching...Routing table for router 4 done  |
Start searching...Routing table for router 5 done  |
Start searching...Routing table for router 6 done  |
Start searching...Routing table for router 7 done  |
Start searching...Routing table for router 8 done  |
Start searching...Routing table for router 9 done  |
Start searching...Routing table for router 10 done  |
Start searching...Routing table for router 11 done  |
Start searching...Routing table for router 12 done  |
Start searching...Routing table for router 13 done  |
Start searching...Routing table for router 14 done  |
Start searching...Routing table for router 15 done  |
Start searching...Routing table for router 16 done  |
Start searching...Routing table for router 17 done  |
Start searching...Routing table for router 18 done  |
Start searching...Routing table for router 19 done  |
Start searching...Routing table for router 20 done  |
Start searching...Routing table for router 21 done  |
Start searching...Routing table for router 22 done  |
Start searching...Routing table for router 23 done  |
Start searching...Routing table for router 24 done  |
Start searching...Routing table for router 25 done  |
Start searching...Routing table for router 26 done  |
Start searching...Routing table for router 27 done  |
Start searching...Routing table for router 28 done  |
Start searching...Routing table for router 29 done  |
Start searching...Routing table for router 30 done  |
Start searching...Routing table for router 31 done  |
Start searching...Routing table for router 32 done  |
Start searching...Routing table for router 33 done  |
Start searching...Routing table for router 34 done  |
Start searching...Routing table for router 35 done  |
Start searching...Routing table for router 36 done  |
Start searching...Routing table for router 37 done  |
Start searching...Routing table for router 38 done  |
Start searching...Routing table for router 39 done  |
Start searching...Routing table for router 40 done  |
Start searching...Routing table for router 41 done  |
Start searching...Routing table for router 42 done  |
Start searching...Routing table for router 43 done  |
Start searching...Routing table for router 44 done  |
Start searching...Routing table for router 45 done  |
Start searching...Routing table for router 46 done  |
Start searching...Routing table for router 47 done  |
Start searching...Routing table for router 48 done  |
Start searching...Routing table for router 49 done  |
Start searching...Routing table for router 50 done  |
Start searching...Routing table for router 51 done  |
Start searching...Routing table for router 52 done  |
Start searching...Routing table for router 53 done  |
Start searching...Routing table for router 54 done  |
Start searching...Routing table for router 55 done  |
Start searching...Routing table for router 56 done  |
Start searching...Routing table for router 57 done  |
Start searching...Routing table for router 58 done  |
Start searching...Routing table for router 59 done  |
Start searching...Routing table for router 60 done  |
Start searching...Routing table for router 61 done  |
Start searching...Routing table for router 62 done  |
Start searching...Routing table for router 63 done  |
Start searching...Routing table for router 64 done  |
Start searching...Routing table for router 65 done  |
Start searching...Routing table for router 66 done  |
Start searching...Routing table for router 67 done  |
Start searching...Routing table for router 68 done  |
Start searching...Routing table for router 69 done  |
Start searching...Routing table for router 70 done  |
Start searching...Routing table for router 71 done  |
Start searching...Routing table for router 72 done  |
Start searching...Routing table for router 73 done  |
Start searching...Routing table for router 74 done  |
Start searching...Routing table for router 75 done  |
Start searching...Routing table for router 76 done  |
Start searching...Routing table for router 77 done  |
Start searching...Routing table for router 78 done  |
Start searching...Routing table for router 79 done  |
Start searching...Routing table for router 80 done  |
Start searching...Routing table for router 81 done  |
Start searching...Routing table for router 82 done  |
Start searching...Routing table for router 83 done  |
Start searching...Routing table for router 84 done  |
Start searching...Routing table for router 85 done  |
Start searching...Routing table for router 86 done  |
Start searching...Routing table for router 87 done  |
Start searching...Routing table for router 88 done  |
Start searching...Routing table for router 89 done  |
Start searching...Routing table for router 90 done  |
Start searching...Routing table for router 91 done  |
Start searching...Routing table for router 92 done  |
Start searching...Routing table for router 93 done  |
Start searching...Routing table for router 94 done  |
Start searching...Routing table for router 95 done  |
Start searching...Routing table for router 96 done  |
Start searching...Routing table for router 97 done  |
Start searching...Routing table for router 98 done  |
Start searching...Routing table for router 99 done  |
Start searching...Routing table for router 100 done  |
Start searching...Routing table for router 101 done  |
Start searching...Routing table for router 102 done  |
Start searching...Routing table for router 103 done  |
Start searching...Routing table for router 104 done  |
Start searching...Routing table for router 105 done  |
Start searching...Routing table for router 106 done  |
Start searching...Routing table for router 107 done  |
Start searching...Routing table for router 108 done  |
Start searching...Routing table for router 109 done  |
Start searching...Routing table for router 110 done  |
Start searching...Routing table for router 111 done  |
Start searching...Routing table for router 112 done  |
Start searching...Routing table for router 113 done  |
Start searching...Routing table for router 114 done  |
Start searching...Routing table for router 115 done  |
Start searching...Routing table for router 116 done  |
Start searching...Routing table for router 117 done  |
Start searching...Routing table for router 118 done  |
Start searching...Routing table for router 119 done  |
Start searching...Routing table for router 120 done  |
Start searching...Routing table for router 121 done  |
Start searching...Routing table for router 122 done  |
Start searching...Routing table for router 123 done  |
Start searching...Routing table for router 124 done  |
Start searching...Routing table for router 125 done  |
Start searching...Routing table for router 126 done  |
Start searching...Routing table for router 127 done  |

========================== Build Routing table done  =====================

Saving routing table...
========================== Building Bad traffic pattern, type 2... ============================
=================== Finished building bad traffic pattern... ====================
Sum of nodes sending: 128
Sum of nodes: 128
0
Class 0:
Minimum packet latency = 5
Average packet latency = 11.2159
Maximum packet latency = 14
Minimum network latency = 5
Average network latency = 11.2159
Maximum network latency = 14
Slowest packet = 3
Minimum flit latency = 5
Average flit latency = 11.2159
Maximum flit latency = 14
Slowest flit = 3
Minimum fragmentation = 0
Average fragmentation = 0
Maximum fragmentation = 0
Minimum injected packet rate = 0 (at node 21)
Average injected packet rate = 0.00960937
Maximum injected packet rate = 0.022 (at node 102)
Minimum accepted packet rate = 0.002 (at node 11)
Average accepted packet rate = 0.00940625
Maximum accepted packet rate = 0.024 (at node 76)
Minimum injected flit rate = 0 (at node 21)
Average injected flit rate = 0.00960937
Maximum injected flit rate = 0.022 (at node 102)
Minimum accepted flit rate = 0.002 (at node 11)
Average accepted flit rate = 0.00940625
Maximum accepted flit rate = 0.024 (at node 76)
Average injected packet length = 1
Average accepted packet length = 1
Total in-flight flits = 13 (0 measured)
latency change    = 1
throughput change = 1
0
Class 0:
Minimum packet latency = 5
Average packet latency = 11.2391
Maximum packet latency = 14
Minimum network latency = 5
Average network latency = 11.2391
Maximum network latency = 14
Slowest packet = 3
Minimum flit latency = 5
Average flit latency = 11.2391
Maximum flit latency = 14
Slowest flit = 3
Minimum fragmentation = 0
Average fragmentation = 0
Maximum fragmentation = 0
Minimum injected packet rate = 0.003 (at node 38)
Average injected packet rate = 0.00977344
Maximum injected packet rate = 0.018 (at node 60)
Minimum accepted packet rate = 0.004 (at node 16)
Average accepted packet rate = 0.00964062
Maximum accepted packet rate = 0.019 (at node 76)
Minimum injected flit rate = 0.003 (at node 38)
Average injected flit rate = 0.00977344
Maximum injected flit rate = 0.018 (at node 60)
Minimum accepted flit rate = 0.004 (at node 16)
Average accepted flit rate = 0.00964062
Maximum accepted flit rate = 0.019 (at node 76)
Average injected packet length = 1
Average accepted packet length = 1
Total in-flight flits = 17 (0 measured)
latency change    = 0.0020565
throughput change = 0.0243112
0
Class 0:
Minimum packet latency = 5
Average packet latency = 11.1976
Maximum packet latency = 15
Minimum network latency = 5
Average network latency = 11.1976
Maximum network latency = 15
Slowest packet = 1829
Minimum flit latency = 5
Average flit latency = 11.1976
Maximum flit latency = 15
Slowest flit = 1829
Minimum fragmentation = 0
Average fragmentation = 0
Maximum fragmentation = 0
Minimum injected packet rate = 0.002 (at node 22)
Average injected packet rate = 0.0103281
Maximum injected packet rate = 0.024 (at node 65)
Minimum accepted packet rate = 0.002 (at node 1)
Average accepted packet rate = 0.0103594
Maximum accepted packet rate = 0.022 (at node 113)
Minimum injected flit rate = 0.002 (at node 22)
Average injected flit rate = 0.0103281
Maximum injected flit rate = 0.024 (at node 65)
Minimum accepted flit rate = 0.002 (at node 1)
Average accepted flit rate = 0.0103594
Maximum accepted flit rate = 0.022 (at node 113)
Average injected packet length = 1
Average accepted packet length = 1
Total in-flight flits = 15 (0 measured)
latency change    = 0.00370377
throughput change = 0.0693816
Warmed up ...Time used is 1500 cycles
1
Class 0:
Minimum packet latency = 5
Average packet latency = 11.1606
Maximum packet latency = 14
Minimum network latency = 5
Average network latency = 11.1606
Maximum network latency = 14
Slowest packet = 1919
Minimum flit latency = 5
Average flit latency = 11.1615
Maximum flit latency = 14
Slowest flit = 1891
Minimum fragmentation = 0
Average fragmentation = 0
Maximum fragmentation = 0
Minimum injected packet rate = 0.002 (at node 61)
Average injected packet rate = 0.0100469
Maximum injected packet rate = 0.022 (at node 85)
Minimum accepted packet rate = 0 (at node 116)
Average accepted packet rate = 0.0100625
Maximum accepted packet rate = 0.02 (at node 75)
Minimum injected flit rate = 0.002 (at node 61)
Average injected flit rate = 0.0100469
Maximum injected flit rate = 0.022 (at node 85)
Minimum accepted flit rate = 0 (at node 116)
Average accepted flit rate = 0.0100625
Maximum accepted flit rate = 0.02 (at node 75)
Average injected packet length = 1
Average accepted packet length = 1
Total in-flight flits = 14 (14 measured)
latency change    = 0.00331653
throughput change = 0.0295031
1
Class 0:
Minimum packet latency = 5
Average packet latency = 11.135
Maximum packet latency = 15
Minimum network latency = 5
Average network latency = 11.135
Maximum network latency = 15
Slowest packet = 2794
Minimum flit latency = 5
Average flit latency = 11.1358
Maximum flit latency = 15
Slowest flit = 2794
Minimum fragmentation = 0
Average fragmentation = 0
Maximum fragmentation = 0
Minimum injected packet rate = 0.003 (at node 27)
Average injected packet rate = 0.00976562
Maximum injected packet rate = 0.018 (at node 107)
Minimum accepted packet rate = 0.002 (at node 116)
Average accepted packet rate = 0.00978125
Maximum accepted packet rate = 0.017 (at node 67)
Minimum injected flit rate = 0.003 (at node 27)
Average injected flit rate = 0.00976562
Maximum injected flit rate = 0.018 (at node 107)
Minimum accepted flit rate = 0.002 (at node 116)
Average accepted flit rate = 0.00978125
Maximum accepted flit rate = 0.017 (at node 67)
Average injected packet length = 1
Average accepted packet length = 1
Total in-flight flits = 13 (13 measured)
latency change    = 0.00229621
throughput change = 0.028754
1
Class 0:
Minimum packet latency = 5
Average packet latency = 11.1232
Maximum packet latency = 15
Minimum network latency = 5
Average network latency = 11.1232
Maximum network latency = 15
Slowest packet = 2794
Minimum flit latency = 5
Average flit latency = 11.1239
Maximum flit latency = 15
Slowest flit = 2794
Minimum fragmentation = 0
Average fragmentation = 0
Maximum fragmentation = 0
Minimum injected packet rate = 0.00333333 (at node 94)
Average injected packet rate = 0.00970833
Maximum injected packet rate = 0.0153333 (at node 36)
Minimum accepted packet rate = 0.004 (at node 10)
Average accepted packet rate = 0.00971354
Maximum accepted packet rate = 0.0153333 (at node 29)
Minimum injected flit rate = 0.00333333 (at node 94)
Average injected flit rate = 0.00970833
Maximum injected flit rate = 0.0153333 (at node 36)
Minimum accepted flit rate = 0.004 (at node 10)
Average accepted flit rate = 0.00971354
Maximum accepted flit rate = 0.0153333 (at node 29)
Average injected packet length = 1
Average accepted packet length = 1
Total in-flight flits = 14 (14 measured)
latency change    = 0.00105732
throughput change = 0.00697051
Draining all recorded packets ...
Draining remaining packets ...
Time taken is 3024 cycles
====== Traffic class 0 ======
Overall minimum packet latency = 5 (1 samples)
Overall average packet latency = 11.1207 (1 samples)
Overall maximum packet latency = 15 (1 samples)
Overall minimum network latency = 5 (1 samples)
Overall average network latency = 11.1207 (1 samples)
Overall maximum network latency = 15 (1 samples)
Overall minimum flit latency = 5 (1 samples)
Overall average flit latency = 11.1206 (1 samples)
Overall maximum flit latency = 15 (1 samples)
Overall minimum fragmentation = 0 (1 samples)
Overall average fragmentation = 0 (1 samples)
Overall maximum fragmentation = 0 (1 samples)
Overall minimum injected packet rate = 0.00333333 (1 samples)
Overall average injected packet rate = 0.00970833 (1 samples)
Overall maximum injected packet rate = 0.0153333 (1 samples)
Overall minimum accepted packet rate = 0.004 (1 samples)
Overall average accepted packet rate = 0.00971354 (1 samples)
Overall maximum accepted packet rate = 0.0153333 (1 samples)
Overall minimum injected flit rate = 0.00333333 (1 samples)
Overall average injected flit rate = 0.00970833 (1 samples)
Overall maximum injected flit rate = 0.0153333 (1 samples)
Overall minimum accepted flit rate = 0.004 (1 samples)
Overall average accepted flit rate = 0.00971354 (1 samples)
Overall maximum accepted flit rate = 0.0153333 (1 samples)
Overall average injected packet size = 1 (1 samples)
Overall average accepted packet size = 1 (1 samples)
Overall average hops = 3.03863 (1 samples)
Total run time 2.69682
