BEGIN Configuration File: ./FT3
injection_rate = 0.01;
traffic = shuffle;
use_size_power_of_two = yes;
routing_function = anca;
vc_buf_size = 16;
topology = fattree;
use_noc_latency = 0;
hold_switch_for_packet=0;

k = 22;
n = 3;

packet_size  = 1;
num_vcs      = 2;
vc_allocator = separable_input_first; 
sw_allocator = separable_input_first;

alloc_iters   = 1;
sample_period = 500;

wait_for_tail_credit = 0;
use_read_write       = 0;

credit_delay   = 2;
routing_delay  = 0;
vc_alloc_delay = 1;
sw_alloc_delay = 1;
st_final_delay = 1;

input_speedup     = 1;
output_speedup    = 1;
internal_speedup  = 2.0;

warmup_periods = 3;
sim_count      = 1;

priority = none;
injection_rate_uses_flits=1;

END Configuration File: ./FT3
Number of nodes: 10648
Number of routers: 1452
Fat Tree
 k = 22 levels = 3
 each switch - total radix =  44
 # of switches = 1452
 # of channels = 42592
 # of nodes ( size of network ) = 10648


Power of two: 8192
#################################################################################
0
Class 0:
Minimum packet latency = 5
Average packet latency = 16.6351
Maximum packet latency = 19
Minimum network latency = 5
Average network latency = 16.6351
Maximum network latency = 19
Slowest packet = 3659
Minimum flit latency = 5
Average flit latency = 16.6351
Maximum flit latency = 19
Slowest flit = 3659
Minimum fragmentation = 0
Average fragmentation = 0
Maximum fragmentation = 0
Minimum injected packet rate = 0 (at node 101)
Average injected packet rate = 0.0100149
Maximum injected packet rate = 0.03 (at node 2725)
Minimum accepted packet rate = 0 (at node 202)
Average accepted packet rate = 0.00966821
Maximum accepted packet rate = 0.03 (at node 5450)
Minimum injected flit rate = 0 (at node 101)
Average injected flit rate = 0.0100149
Maximum injected flit rate = 0.03 (at node 2725)
Minimum accepted flit rate = 0 (at node 202)
Average accepted flit rate = 0.00966821
Maximum accepted flit rate = 0.03 (at node 5450)
Average injected packet length = 1
Average accepted packet length = 1
Total in-flight flits = 1420 (0 measured)
latency change    = 1
throughput change = 1
0
Class 0:
Minimum packet latency = 5
Average packet latency = 16.6407
Maximum packet latency = 19
Minimum network latency = 5
Average network latency = 16.6407
Maximum network latency = 19
Slowest packet = 3659
Minimum flit latency = 5
Average flit latency = 16.6407
Maximum flit latency = 19
Slowest flit = 3659
Minimum fragmentation = 0
Average fragmentation = 0
Maximum fragmentation = 0
Minimum injected packet rate = 0.001 (at node 1916)
Average injected packet rate = 0.0100062
Maximum injected packet rate = 0.024 (at node 3728)
Minimum accepted packet rate = 0.001 (at node 787)
Average accepted packet rate = 0.00984314
Maximum accepted packet rate = 0.024 (at node 7456)
Minimum injected flit rate = 0.001 (at node 1916)
Average injected flit rate = 0.0100062
Maximum injected flit rate = 0.024 (at node 3728)
Minimum accepted flit rate = 0.001 (at node 787)
Average accepted flit rate = 0.00984314
Maximum accepted flit rate = 0.024 (at node 7456)
Average injected packet length = 1
Average accepted packet length = 1
Total in-flight flits = 1336 (0 measured)
latency change    = 0.000335998
throughput change = 0.0177714
0
Class 0:
Minimum packet latency = 5
Average packet latency = 16.6401
Maximum packet latency = 19
Minimum network latency = 5
Average network latency = 16.6401
Maximum network latency = 19
Slowest packet = 82826
Minimum flit latency = 5
Average flit latency = 16.6401
Maximum flit latency = 19
Slowest flit = 82826
Minimum fragmentation = 0
Average fragmentation = 0
Maximum fragmentation = 0
Minimum injected packet rate = 0 (at node 60)
Average injected packet rate = 0.0099707
Maximum injected packet rate = 0.03 (at node 5034)
Minimum accepted packet rate = 0 (at node 120)
Average accepted packet rate = 0.00997705
Maximum accepted packet rate = 0.03 (at node 2503)
Minimum injected flit rate = 0 (at node 60)
Average injected flit rate = 0.0099707
Maximum injected flit rate = 0.03 (at node 5034)
Minimum accepted flit rate = 0 (at node 120)
Average accepted flit rate = 0.00997705
Maximum accepted flit rate = 0.03 (at node 2503)
Average injected packet length = 1
Average accepted packet length = 1
Total in-flight flits = 1310 (0 measured)
latency change    = 3.5203e-05
throughput change = 0.0134219
Warmed up ...Time used is 1500 cycles
1
Class 0:
Minimum packet latency = 5
Average packet latency = 16.6464
Maximum packet latency = 19
Minimum network latency = 5
Average network latency = 16.6464
Maximum network latency = 19
Slowest packet = 131485
Minimum flit latency = 5
Average flit latency = 16.6502
Maximum flit latency = 19
Slowest flit = 121831
Minimum fragmentation = 0
Average fragmentation = 0
Maximum fragmentation = 0
Minimum injected packet rate = 0 (at node 413)
Average injected packet rate = 0.00998193
Maximum injected packet rate = 0.03 (at node 3623)
Minimum accepted packet rate = 0 (at node 419)
Average accepted packet rate = 0.00997876
Maximum accepted packet rate = 0.03 (at node 7246)
Minimum injected flit rate = 0 (at node 413)
Average injected flit rate = 0.00998193
Maximum injected flit rate = 0.03 (at node 3623)
Minimum accepted flit rate = 0 (at node 419)
Average accepted flit rate = 0.00997876
Maximum accepted flit rate = 0.03 (at node 7246)
Average injected packet length = 1
Average accepted packet length = 1
Total in-flight flits = 1323 (1323 measured)
latency change    = 0.000373688
throughput change = 0.000171262
1
Class 0:
Minimum packet latency = 5
Average packet latency = 16.6442
Maximum packet latency = 19
Minimum network latency = 5
Average network latency = 16.6442
Maximum network latency = 19
Slowest packet = 131485
Minimum flit latency = 5
Average flit latency = 16.6462
Maximum flit latency = 19
Slowest flit = 121831
Minimum fragmentation = 0
Average fragmentation = 0
Maximum fragmentation = 0
Minimum injected packet rate = 0.001 (at node 2560)
Average injected packet rate = 0.0100521
Maximum injected packet rate = 0.023 (at node 1108)
Minimum accepted packet rate = 0.001 (at node 5120)
Average accepted packet rate = 0.0100427
Maximum accepted packet rate = 0.023 (at node 473)
Minimum injected flit rate = 0.001 (at node 2560)
Average injected flit rate = 0.0100521
Maximum injected flit rate = 0.023 (at node 1108)
Minimum accepted flit rate = 0.001 (at node 5120)
Average accepted flit rate = 0.0100427
Maximum accepted flit rate = 0.023 (at node 473)
Average injected packet length = 1
Average accepted packet length = 1
Total in-flight flits = 1387 (1387 measured)
latency change    = 0.000127217
throughput change = 0.00636927
1
Class 0:
Minimum packet latency = 5
Average packet latency = 16.6476
Maximum packet latency = 19
Minimum network latency = 5
Average network latency = 16.6476
Maximum network latency = 19
Slowest packet = 131485
Minimum flit latency = 5
Average flit latency = 16.6488
Maximum flit latency = 19
Slowest flit = 121831
Minimum fragmentation = 0
Average fragmentation = 0
Maximum fragmentation = 0
Minimum injected packet rate = 0.002 (at node 3072)
Average injected packet rate = 0.0100244
Maximum injected packet rate = 0.0213333 (at node 3939)
Minimum accepted packet rate = 0.002 (at node 3084)
Average accepted packet rate = 0.0100158
Maximum accepted packet rate = 0.0213333 (at node 7878)
Minimum injected flit rate = 0.002 (at node 3072)
Average injected flit rate = 0.0100244
Maximum injected flit rate = 0.0213333 (at node 3939)
Minimum accepted flit rate = 0.002 (at node 3084)
Average accepted flit rate = 0.0100158
Maximum accepted flit rate = 0.0213333 (at node 7878)
Average injected packet length = 1
Average accepted packet length = 1
Total in-flight flits = 1416 (1416 measured)
latency change    = 0.000200419
throughput change = 0.00268944
Draining all recorded packets ...
Draining remaining packets ...
Time taken is 3039 cycles
====== Traffic class 0 ======
Overall minimum packet latency = 5 (1 samples)
Overall average packet latency = 16.6493 (1 samples)
Overall maximum packet latency = 19 (1 samples)
Overall minimum network latency = 5 (1 samples)
Overall average network latency = 16.6493 (1 samples)
Overall maximum network latency = 19 (1 samples)
Overall minimum flit latency = 5 (1 samples)
Overall average flit latency = 16.6502 (1 samples)
Overall maximum flit latency = 19 (1 samples)
Overall minimum fragmentation = 0 (1 samples)
Overall average fragmentation = 0 (1 samples)
Overall maximum fragmentation = 0 (1 samples)
Overall minimum injected packet rate = 0.002 (1 samples)
Overall average injected packet rate = 0.0100244 (1 samples)
Overall maximum injected packet rate = 0.0213333 (1 samples)
Overall minimum accepted packet rate = 0.002 (1 samples)
Overall average accepted packet rate = 0.0100158 (1 samples)
Overall maximum accepted packet rate = 0.0213333 (1 samples)
Overall minimum injected flit rate = 0.002 (1 samples)
Overall average injected flit rate = 0.0100244 (1 samples)
Overall maximum injected flit rate = 0.0213333 (1 samples)
Overall minimum accepted flit rate = 0.002 (1 samples)
Overall average accepted flit rate = 0.0100158 (1 samples)
Overall maximum accepted flit rate = 0.0213333 (1 samples)
Overall average injected packet size = 1 (1 samples)
Overall average accepted packet size = 1 (1 samples)
Overall average hops = 4.87803 (1 samples)
Total run time 308.612
