BEGIN Configuration File: ./FT3
injection_rate = 0.95;
traffic = shuffle;
use_size_power_of_two = yes;
routing_function = anca;
vc_buf_size = 16;
topology = fattree;
use_noc_latency = 0;
hold_switch_for_packet=0;

k = 22;
n = 3;

packet_size  = 1;
num_vcs      = 2;
vc_allocator = separable_input_first; 
sw_allocator = separable_input_first;

alloc_iters   = 1;
sample_period = 500;

wait_for_tail_credit = 0;
use_read_write       = 0;

credit_delay   = 2;
routing_delay  = 0;
vc_alloc_delay = 1;
sw_alloc_delay = 1;
st_final_delay = 1;

input_speedup     = 1;
output_speedup    = 1;
internal_speedup  = 2.0;

warmup_periods = 3;
sim_count      = 1;

priority = none;
injection_rate_uses_flits=1;

END Configuration File: ./FT3
Number of nodes: 10648
Number of routers: 1452
Fat Tree
 k = 22 levels = 3
 each switch - total radix =  44
 # of switches = 1452
 # of channels = 42592
 # of nodes ( size of network ) = 10648


Power of two: 8192
#################################################################################
0
Class 0:
Minimum packet latency = 5
Average packet latency = 36.499
Maximum packet latency = 108
Minimum network latency = 5
Average network latency = 36.499
Maximum network latency = 108
Slowest packet = 2888691
Minimum flit latency = 5
Average flit latency = 36.499
Maximum flit latency = 108
Slowest flit = 2888691
Minimum fragmentation = 0
Average fragmentation = 0
Maximum fragmentation = 0
Minimum injected packet rate = 0.908 (at node 6140)
Average injected packet rate = 0.949912
Maximum injected packet rate = 0.986 (at node 7887)
Minimum accepted packet rate = 0.826 (at node 4089)
Average accepted packet rate = 0.871073
Maximum accepted packet rate = 0.956 (at node 8165)
Minimum injected flit rate = 0.908 (at node 6140)
Average injected flit rate = 0.949912
Maximum injected flit rate = 0.986 (at node 7887)
Minimum accepted flit rate = 0.826 (at node 4089)
Average accepted flit rate = 0.871073
Maximum accepted flit rate = 0.956 (at node 8165)
Average injected packet length = 1
Average accepted packet length = 1
Total in-flight flits = 322924 (0 measured)
latency change    = 1
throughput change = 1
0
Class 0:
Minimum packet latency = 5
Average packet latency = 39.8396
Maximum packet latency = 157
Minimum network latency = 5
Average network latency = 39.8396
Maximum network latency = 157
Slowest packet = 6539844
Minimum flit latency = 5
Average flit latency = 39.8396
Maximum flit latency = 157
Slowest flit = 6539844
Minimum fragmentation = 0
Average fragmentation = 0
Maximum fragmentation = 0
Minimum injected packet rate = 0.925 (at node 1211)
Average injected packet rate = 0.949951
Maximum injected packet rate = 0.975 (at node 510)
Minimum accepted packet rate = 0.88 (at node 5806)
Average accepted packet rate = 0.90826
Maximum accepted packet rate = 0.956 (at node 16)
Minimum injected flit rate = 0.925 (at node 1211)
Average injected flit rate = 0.949951
Maximum injected flit rate = 0.975 (at node 510)
Minimum accepted flit rate = 0.88 (at node 5806)
Average accepted flit rate = 0.90826
Maximum accepted flit rate = 0.956 (at node 16)
Average injected packet length = 1
Average accepted packet length = 1
Total in-flight flits = 341531 (0 measured)
latency change    = 0.0838511
throughput change = 0.0409433
0
Class 0:
Minimum packet latency = 5
Average packet latency = 44.3618
Maximum packet latency = 185
Minimum network latency = 5
Average network latency = 44.3618
Maximum network latency = 185
Slowest packet = 7448685
Minimum flit latency = 5
Average flit latency = 44.3618
Maximum flit latency = 185
Slowest flit = 7448685
Minimum fragmentation = 0
Average fragmentation = 0
Maximum fragmentation = 0
Minimum injected packet rate = 0.902 (at node 6577)
Average injected packet rate = 0.950093
Maximum injected packet rate = 0.982 (at node 3451)
Minimum accepted packet rate = 0.904 (at node 2611)
Average accepted packet rate = 0.948468
Maximum accepted packet rate = 0.992 (at node 47)
Minimum injected flit rate = 0.902 (at node 6577)
Average injected flit rate = 0.950093
Maximum injected flit rate = 0.982 (at node 3451)
Minimum accepted flit rate = 0.904 (at node 2611)
Average accepted flit rate = 0.948468
Maximum accepted flit rate = 0.992 (at node 47)
Average injected packet length = 1
Average accepted packet length = 1
Total in-flight flits = 348187 (0 measured)
latency change    = 0.101938
throughput change = 0.042393
Warmed up ...Time used is 1500 cycles
1
Class 0:
Minimum packet latency = 5
Average packet latency = 44.754
Maximum packet latency = 169
Minimum network latency = 5
Average network latency = 44.754
Maximum network latency = 169
Slowest packet = 12503417
Minimum flit latency = 5
Average flit latency = 45.0705
Maximum flit latency = 181
Slowest flit = 11628833
Minimum fragmentation = 0
Average fragmentation = 0
Maximum fragmentation = 0
Minimum injected packet rate = 0.912 (at node 2535)
Average injected packet rate = 0.950096
Maximum injected packet rate = 0.98 (at node 2735)
Minimum accepted packet rate = 0.91 (at node 2647)
Average accepted packet rate = 0.949129
Maximum accepted packet rate = 0.994 (at node 6716)
Minimum injected flit rate = 0.912 (at node 2535)
Average injected flit rate = 0.950096
Maximum injected flit rate = 0.98 (at node 2735)
Minimum accepted flit rate = 0.91 (at node 2647)
Average accepted flit rate = 0.949129
Maximum accepted flit rate = 0.994 (at node 6716)
Average injected packet length = 1
Average accepted packet length = 1
Total in-flight flits = 352147 (352147 measured)
latency change    = 0.00876425
throughput change = 0.000696568
1
Class 0:
Minimum packet latency = 5
Average packet latency = 45.0605
Maximum packet latency = 169
Minimum network latency = 5
Average network latency = 45.0605
Maximum network latency = 169
Slowest packet = 12503417
Minimum flit latency = 5
Average flit latency = 45.205
Maximum flit latency = 181
Slowest flit = 11628833
Minimum fragmentation = 0
Average fragmentation = 0
Maximum fragmentation = 0
Minimum injected packet rate = 0.924 (at node 7956)
Average injected packet rate = 0.950134
Maximum injected packet rate = 0.971 (at node 239)
Minimum accepted packet rate = 0.92 (at node 1588)
Average accepted packet rate = 0.949339
Maximum accepted packet rate = 0.978 (at node 7346)
Minimum injected flit rate = 0.924 (at node 7956)
Average injected flit rate = 0.950134
Maximum injected flit rate = 0.971 (at node 239)
Minimum accepted flit rate = 0.92 (at node 1588)
Average accepted flit rate = 0.949339
Maximum accepted flit rate = 0.978 (at node 7346)
Average injected packet length = 1
Average accepted packet length = 1
Total in-flight flits = 354696 (354696 measured)
latency change    = 0.00680178
throughput change = 0.000221037
1
Class 0:
Minimum packet latency = 5
Average packet latency = 45.2128
Maximum packet latency = 169
Minimum network latency = 5
Average network latency = 45.2128
Maximum network latency = 169
Slowest packet = 12503417
Minimum flit latency = 5
Average flit latency = 45.3046
Maximum flit latency = 181
Slowest flit = 11628833
Minimum fragmentation = 0
Average fragmentation = 0
Maximum fragmentation = 0
Minimum injected packet rate = 0.927333 (at node 794)
Average injected packet rate = 0.950048
Maximum injected packet rate = 0.972667 (at node 2085)
Minimum accepted packet rate = 0.925333 (at node 7721)
Average accepted packet rate = 0.949624
Maximum accepted packet rate = 0.974 (at node 4170)
Minimum injected flit rate = 0.927333 (at node 794)
Average injected flit rate = 0.950048
Maximum injected flit rate = 0.972667 (at node 2085)
Minimum accepted flit rate = 0.925333 (at node 7721)
Average accepted flit rate = 0.949624
Maximum accepted flit rate = 0.974 (at node 4170)
Average injected packet length = 1
Average accepted packet length = 1
Total in-flight flits = 353393 (353393 measured)
latency change    = 0.0033691
throughput change = 0.000299898
Draining all recorded packets ...
Draining remaining packets ...
Time taken is 3259 cycles
====== Traffic class 0 ======
Overall minimum packet latency = 5 (1 samples)
Overall average packet latency = 45.3301 (1 samples)
Overall maximum packet latency = 169 (1 samples)
Overall minimum network latency = 5 (1 samples)
Overall average network latency = 45.3301 (1 samples)
Overall maximum network latency = 169 (1 samples)
Overall minimum flit latency = 5 (1 samples)
Overall average flit latency = 45.3965 (1 samples)
Overall maximum flit latency = 210 (1 samples)
Overall minimum fragmentation = 0 (1 samples)
Overall average fragmentation = 0 (1 samples)
Overall maximum fragmentation = 0 (1 samples)
Overall minimum injected packet rate = 0.927333 (1 samples)
Overall average injected packet rate = 0.950048 (1 samples)
Overall maximum injected packet rate = 0.972667 (1 samples)
Overall minimum accepted packet rate = 0.925333 (1 samples)
Overall average accepted packet rate = 0.949624 (1 samples)
Overall maximum accepted packet rate = 0.974 (1 samples)
Overall minimum injected flit rate = 0.927333 (1 samples)
Overall average injected flit rate = 0.950048 (1 samples)
Overall maximum injected flit rate = 0.972667 (1 samples)
Overall minimum accepted flit rate = 0.925333 (1 samples)
Overall average accepted flit rate = 0.949624 (1 samples)
Overall maximum accepted flit rate = 0.974 (1 samples)
Overall average injected packet size = 1 (1 samples)
Overall average accepted packet size = 1 (1 samples)
Overall average hops = 4.87645 (1 samples)
Total run time 3871.65
