BEGIN Configuration File: ./FT3
injection_rate = 0.8;
traffic = shuffle;
use_size_power_of_two = yes;
routing_function = anca;
vc_buf_size = 16;
topology = fattree;
use_noc_latency = 0;
hold_switch_for_packet=0;

k = 22;
n = 3;

packet_size  = 1;
num_vcs      = 2;
vc_allocator = separable_input_first; 
sw_allocator = separable_input_first;

alloc_iters   = 1;
sample_period = 500;

wait_for_tail_credit = 0;
use_read_write       = 0;

credit_delay   = 2;
routing_delay  = 0;
vc_alloc_delay = 1;
sw_alloc_delay = 1;
st_final_delay = 1;

input_speedup     = 1;
output_speedup    = 1;
internal_speedup  = 2.0;

warmup_periods = 3;
sim_count      = 1;

priority = none;
injection_rate_uses_flits=1;

END Configuration File: ./FT3
Number of nodes: 10648
Number of routers: 1452
Fat Tree
 k = 22 levels = 3
 each switch - total radix =  44
 # of switches = 1452
 # of channels = 42592
 # of nodes ( size of network ) = 10648


Power of two: 8192
#################################################################################
0
Class 0:
Minimum packet latency = 5
Average packet latency = 24.0356
Maximum packet latency = 58
Minimum network latency = 5
Average network latency = 24.0356
Maximum network latency = 58
Slowest packet = 1687702
Minimum flit latency = 5
Average flit latency = 24.0356
Maximum flit latency = 58
Slowest flit = 1687702
Minimum fragmentation = 0
Average fragmentation = 0
Maximum fragmentation = 0
Minimum injected packet rate = 0.728 (at node 5117)
Average injected packet rate = 0.799753
Maximum injected packet rate = 0.868 (at node 7128)
Minimum accepted packet rate = 0.692 (at node 2043)
Average accepted packet rate = 0.760909
Maximum accepted packet rate = 0.834 (at node 8165)
Minimum injected flit rate = 0.728 (at node 5117)
Average injected flit rate = 0.799753
Maximum injected flit rate = 0.868 (at node 7128)
Minimum accepted flit rate = 0.692 (at node 2043)
Average accepted flit rate = 0.760909
Maximum accepted flit rate = 0.834 (at node 8165)
Average injected packet length = 1
Average accepted packet length = 1
Total in-flight flits = 159103 (0 measured)
latency change    = 1
throughput change = 1
0
Class 0:
Minimum packet latency = 5
Average packet latency = 24.159
Maximum packet latency = 58
Minimum network latency = 5
Average network latency = 24.159
Maximum network latency = 58
Slowest packet = 1687702
Minimum flit latency = 5
Average flit latency = 24.159
Maximum flit latency = 58
Slowest flit = 1687702
Minimum fragmentation = 0
Average fragmentation = 0
Maximum fragmentation = 0
Minimum injected packet rate = 0.747 (at node 2823)
Average injected packet rate = 0.799856
Maximum injected packet rate = 0.849 (at node 1229)
Minimum accepted packet rate = 0.73 (at node 5646)
Average accepted packet rate = 0.780509
Maximum accepted packet rate = 0.83 (at node 16)
Minimum injected flit rate = 0.747 (at node 2823)
Average injected flit rate = 0.799856
Maximum injected flit rate = 0.849 (at node 1229)
Minimum accepted flit rate = 0.73 (at node 5646)
Average accepted flit rate = 0.780509
Maximum accepted flit rate = 0.83 (at node 16)
Average injected packet length = 1
Average accepted packet length = 1
Total in-flight flits = 158490 (0 measured)
latency change    = 0.00510784
throughput change = 0.0251113
0
Class 0:
Minimum packet latency = 5
Average packet latency = 24.2774
Maximum packet latency = 58
Minimum network latency = 5
Average network latency = 24.2774
Maximum network latency = 58
Slowest packet = 6732603
Minimum flit latency = 5
Average flit latency = 24.2774
Maximum flit latency = 58
Slowest flit = 6732603
Minimum fragmentation = 0
Average fragmentation = 0
Maximum fragmentation = 0
Minimum injected packet rate = 0.73 (at node 7502)
Average injected packet rate = 0.80008
Maximum injected packet rate = 0.862 (at node 1309)
Minimum accepted packet rate = 0.736 (at node 1560)
Average accepted packet rate = 0.799869
Maximum accepted packet rate = 0.87 (at node 2618)
Minimum injected flit rate = 0.73 (at node 7502)
Average injected flit rate = 0.80008
Maximum injected flit rate = 0.862 (at node 1309)
Minimum accepted flit rate = 0.736 (at node 1560)
Average accepted flit rate = 0.799869
Maximum accepted flit rate = 0.87 (at node 2618)
Average injected packet length = 1
Average accepted packet length = 1
Total in-flight flits = 159356 (0 measured)
latency change    = 0.00488021
throughput change = 0.0242038
Warmed up ...Time used is 1500 cycles
1
Class 0:
Minimum packet latency = 5
Average packet latency = 24.2287
Maximum packet latency = 56
Minimum network latency = 5
Average network latency = 24.2287
Maximum network latency = 56
Slowest packet = 11157789
Minimum flit latency = 5
Average flit latency = 24.2753
Maximum flit latency = 56
Slowest flit = 11157789
Minimum fragmentation = 0
Average fragmentation = 0
Maximum fragmentation = 0
Minimum injected packet rate = 0.73 (at node 4180)
Average injected packet rate = 0.799792
Maximum injected packet rate = 0.864 (at node 7779)
Minimum accepted packet rate = 0.73 (at node 4985)
Average accepted packet rate = 0.79996
Maximum accepted packet rate = 0.868 (at node 7367)
Minimum injected flit rate = 0.73 (at node 4180)
Average injected flit rate = 0.799792
Maximum injected flit rate = 0.864 (at node 7779)
Minimum accepted flit rate = 0.73 (at node 4985)
Average accepted flit rate = 0.79996
Maximum accepted flit rate = 0.868 (at node 7367)
Average injected packet length = 1
Average accepted packet length = 1
Total in-flight flits = 158668 (158668 measured)
latency change    = 0.00201075
throughput change = 0.000114141
1
Class 0:
Minimum packet latency = 5
Average packet latency = 24.259
Maximum packet latency = 58
Minimum network latency = 5
Average network latency = 24.259
Maximum network latency = 58
Slowest packet = 14376615
Minimum flit latency = 5
Average flit latency = 24.2816
Maximum flit latency = 58
Slowest flit = 14376615
Minimum fragmentation = 0
Average fragmentation = 0
Maximum fragmentation = 0
Minimum injected packet rate = 0.752 (at node 6705)
Average injected packet rate = 0.799962
Maximum injected packet rate = 0.851 (at node 136)
Minimum accepted packet rate = 0.754 (at node 1319)
Average accepted packet rate = 0.80003
Maximum accepted packet rate = 0.85 (at node 272)
Minimum injected flit rate = 0.752 (at node 6705)
Average injected flit rate = 0.799962
Maximum injected flit rate = 0.851 (at node 136)
Minimum accepted flit rate = 0.754 (at node 1319)
Average accepted flit rate = 0.80003
Maximum accepted flit rate = 0.85 (at node 272)
Average injected packet length = 1
Average accepted packet length = 1
Total in-flight flits = 158797 (158797 measured)
latency change    = 0.00124989
throughput change = 8.78873e-05
1
Class 0:
Minimum packet latency = 5
Average packet latency = 24.267
Maximum packet latency = 58
Minimum network latency = 5
Average network latency = 24.267
Maximum network latency = 58
Slowest packet = 14376615
Minimum flit latency = 5
Average flit latency = 24.2819
Maximum flit latency = 58
Slowest flit = 14376615
Minimum fragmentation = 0
Average fragmentation = 0
Maximum fragmentation = 0
Minimum injected packet rate = 0.757333 (at node 7281)
Average injected packet rate = 0.800022
Maximum injected packet rate = 0.838 (at node 3179)
Minimum accepted packet rate = 0.76 (at node 5219)
Average accepted packet rate = 0.800046
Maximum accepted packet rate = 0.836667 (at node 2352)
Minimum injected flit rate = 0.757333 (at node 7281)
Average injected flit rate = 0.800022
Maximum injected flit rate = 0.838 (at node 3179)
Minimum accepted flit rate = 0.76 (at node 5219)
Average accepted flit rate = 0.800046
Maximum accepted flit rate = 0.836667 (at node 2352)
Average injected packet length = 1
Average accepted packet length = 1
Total in-flight flits = 159059 (159059 measured)
latency change    = 0.000328687
throughput change = 1.96318e-05
Draining all recorded packets ...
Draining remaining packets ...
Time taken is 3090 cycles
====== Traffic class 0 ======
Overall minimum packet latency = 5 (1 samples)
Overall average packet latency = 24.2821 (1 samples)
Overall maximum packet latency = 58 (1 samples)
Overall minimum network latency = 5 (1 samples)
Overall average network latency = 24.2821 (1 samples)
Overall maximum network latency = 58 (1 samples)
Overall minimum flit latency = 5 (1 samples)
Overall average flit latency = 24.2937 (1 samples)
Overall maximum flit latency = 58 (1 samples)
Overall minimum fragmentation = 0 (1 samples)
Overall average fragmentation = 0 (1 samples)
Overall maximum fragmentation = 0 (1 samples)
Overall minimum injected packet rate = 0.757333 (1 samples)
Overall average injected packet rate = 0.800022 (1 samples)
Overall maximum injected packet rate = 0.838 (1 samples)
Overall minimum accepted packet rate = 0.76 (1 samples)
Overall average accepted packet rate = 0.800046 (1 samples)
Overall maximum accepted packet rate = 0.836667 (1 samples)
Overall minimum injected flit rate = 0.757333 (1 samples)
Overall average injected flit rate = 0.800022 (1 samples)
Overall maximum injected flit rate = 0.838 (1 samples)
Overall minimum accepted flit rate = 0.76 (1 samples)
Overall average accepted flit rate = 0.800046 (1 samples)
Overall maximum accepted flit rate = 0.836667 (1 samples)
Overall average injected packet size = 1 (1 samples)
Overall average accepted packet size = 1 (1 samples)
Overall average hops = 4.87645 (1 samples)
Total run time 3073.21
