BEGIN Configuration File: ./FT3
injection_rate = 0.7;
traffic = shuffle;
use_size_power_of_two = yes;
routing_function = anca;
vc_buf_size = 16;
topology = fattree;
use_noc_latency = 0;
hold_switch_for_packet=0;

k = 22;
n = 3;

packet_size  = 1;
num_vcs      = 2;
vc_allocator = separable_input_first; 
sw_allocator = separable_input_first;

alloc_iters   = 1;
sample_period = 500;

wait_for_tail_credit = 0;
use_read_write       = 0;

credit_delay   = 2;
routing_delay  = 0;
vc_alloc_delay = 1;
sw_alloc_delay = 1;
st_final_delay = 1;

input_speedup     = 1;
output_speedup    = 1;
internal_speedup  = 2.0;

warmup_periods = 3;
sim_count      = 1;

priority = none;
injection_rate_uses_flits=1;

END Configuration File: ./FT3
Number of nodes: 10648
Number of routers: 1452
Fat Tree
 k = 22 levels = 3
 each switch - total radix =  44
 # of switches = 1452
 # of channels = 42592
 # of nodes ( size of network ) = 10648


Power of two: 8192
#################################################################################
0
Class 0:
Minimum packet latency = 5
Average packet latency = 21.5238
Maximum packet latency = 47
Minimum network latency = 5
Average network latency = 21.5238
Maximum network latency = 47
Slowest packet = 948290
Minimum flit latency = 5
Average flit latency = 21.5238
Maximum flit latency = 47
Slowest flit = 948290
Minimum fragmentation = 0
Average fragmentation = 0
Maximum fragmentation = 0
Minimum injected packet rate = 0.616 (at node 5117)
Average injected packet rate = 0.69983
Maximum injected packet rate = 0.778 (at node 1815)
Minimum accepted packet rate = 0.584 (at node 2043)
Average accepted packet rate = 0.669542
Maximum accepted packet rate = 0.744 (at node 3630)
Minimum injected flit rate = 0.616 (at node 5117)
Average injected flit rate = 0.69983
Maximum injected flit rate = 0.778 (at node 1815)
Minimum accepted flit rate = 0.584 (at node 2043)
Average accepted flit rate = 0.669542
Maximum accepted flit rate = 0.744 (at node 3630)
Average injected packet length = 1
Average accepted packet length = 1
Total in-flight flits = 124058 (0 measured)
latency change    = 1
throughput change = 1
0
Class 0:
Minimum packet latency = 5
Average packet latency = 21.5789
Maximum packet latency = 51
Minimum network latency = 5
Average network latency = 21.5789
Maximum network latency = 51
Slowest packet = 3640998
Minimum flit latency = 5
Average flit latency = 21.5789
Maximum flit latency = 51
Slowest flit = 3640998
Minimum fragmentation = 0
Average fragmentation = 0
Maximum fragmentation = 0
Minimum injected packet rate = 0.644 (at node 6140)
Average injected packet rate = 0.699834
Maximum injected packet rate = 0.749 (at node 6723)
Minimum accepted packet rate = 0.624 (at node 4089)
Average accepted packet rate = 0.684747
Maximum accepted packet rate = 0.739 (at node 16)
Minimum injected flit rate = 0.644 (at node 6140)
Average injected flit rate = 0.699834
Maximum injected flit rate = 0.749 (at node 6723)
Minimum accepted flit rate = 0.624 (at node 4089)
Average accepted flit rate = 0.684747
Maximum accepted flit rate = 0.739 (at node 16)
Average injected packet length = 1
Average accepted packet length = 1
Total in-flight flits = 123590 (0 measured)
latency change    = 0.00255372
throughput change = 0.0222054
0
Class 0:
Minimum packet latency = 5
Average packet latency = 21.6388
Maximum packet latency = 50
Minimum network latency = 5
Average network latency = 21.6388
Maximum network latency = 50
Slowest packet = 6961246
Minimum flit latency = 5
Average flit latency = 21.6388
Maximum flit latency = 50
Slowest flit = 6961246
Minimum fragmentation = 0
Average fragmentation = 0
Maximum fragmentation = 0
Minimum injected packet rate = 0.632 (at node 2059)
Average injected packet rate = 0.700036
Maximum injected packet rate = 0.768 (at node 1309)
Minimum accepted packet rate = 0.626 (at node 2765)
Average accepted packet rate = 0.699826
Maximum accepted packet rate = 0.772 (at node 5715)
Minimum injected flit rate = 0.632 (at node 2059)
Average injected flit rate = 0.700036
Maximum injected flit rate = 0.768 (at node 1309)
Minimum accepted flit rate = 0.626 (at node 2765)
Average accepted flit rate = 0.699826
Maximum accepted flit rate = 0.772 (at node 5715)
Average injected packet length = 1
Average accepted packet length = 1
Total in-flight flits = 124448 (0 measured)
latency change    = 0.0027649
throughput change = 0.0215473
Warmed up ...Time used is 1500 cycles
1
Class 0:
Minimum packet latency = 5
Average packet latency = 21.602
Maximum packet latency = 48
Minimum network latency = 5
Average network latency = 21.602
Maximum network latency = 48
Slowest packet = 9319455
Minimum flit latency = 5
Average flit latency = 21.6331
Maximum flit latency = 48
Slowest flit = 9319455
Minimum fragmentation = 0
Average fragmentation = 0
Maximum fragmentation = 0
Minimum injected packet rate = 0.626 (at node 3130)
Average injected packet rate = 0.699944
Maximum injected packet rate = 0.768 (at node 1134)
Minimum accepted packet rate = 0.63 (at node 5384)
Average accepted packet rate = 0.700022
Maximum accepted packet rate = 0.77 (at node 2268)
Minimum injected flit rate = 0.626 (at node 3130)
Average injected flit rate = 0.699944
Maximum injected flit rate = 0.768 (at node 1134)
Minimum accepted flit rate = 0.63 (at node 5384)
Average accepted flit rate = 0.700022
Maximum accepted flit rate = 0.77 (at node 2268)
Average injected packet length = 1
Average accepted packet length = 1
Total in-flight flits = 124130 (124130 measured)
latency change    = 0.00170051
throughput change = 0.000279009
1
Class 0:
Minimum packet latency = 5
Average packet latency = 21.614
Maximum packet latency = 50
Minimum network latency = 5
Average network latency = 21.614
Maximum network latency = 50
Slowest packet = 13026862
Minimum flit latency = 5
Average flit latency = 21.6293
Maximum flit latency = 50
Slowest flit = 13026862
Minimum fragmentation = 0
Average fragmentation = 0
Maximum fragmentation = 0
Minimum injected packet rate = 0.643 (at node 5423)
Average injected packet rate = 0.699994
Maximum injected packet rate = 0.756 (at node 136)
Minimum accepted packet rate = 0.645 (at node 1228)
Average accepted packet rate = 0.700045
Maximum accepted packet rate = 0.754 (at node 272)
Minimum injected flit rate = 0.643 (at node 5423)
Average injected flit rate = 0.699994
Maximum injected flit rate = 0.756 (at node 136)
Minimum accepted flit rate = 0.645 (at node 1228)
Average accepted flit rate = 0.700045
Maximum accepted flit rate = 0.754 (at node 272)
Average injected packet length = 1
Average accepted packet length = 1
Total in-flight flits = 124031 (124031 measured)
latency change    = 0.000553669
throughput change = 3.26081e-05
1
Class 0:
Minimum packet latency = 5
Average packet latency = 21.6193
Maximum packet latency = 51
Minimum network latency = 5
Average network latency = 21.6193
Maximum network latency = 51
Slowest packet = 16214533
Minimum flit latency = 5
Average flit latency = 21.6294
Maximum flit latency = 51
Slowest flit = 16214533
Minimum fragmentation = 0
Average fragmentation = 0
Maximum fragmentation = 0
Minimum injected packet rate = 0.654 (at node 5273)
Average injected packet rate = 0.700077
Maximum injected packet rate = 0.747333 (at node 4327)
Minimum accepted packet rate = 0.652667 (at node 2355)
Average accepted packet rate = 0.700095
Maximum accepted packet rate = 0.749333 (at node 463)
Minimum injected flit rate = 0.654 (at node 5273)
Average injected flit rate = 0.700077
Maximum injected flit rate = 0.747333 (at node 4327)
Minimum accepted flit rate = 0.652667 (at node 2355)
Average accepted flit rate = 0.700095
Maximum accepted flit rate = 0.749333 (at node 463)
Average injected packet length = 1
Average accepted packet length = 1
Total in-flight flits = 124223 (124223 measured)
latency change    = 0.000244715
throughput change = 7.24766e-05
Draining all recorded packets ...
Draining remaining packets ...
Time taken is 3074 cycles
====== Traffic class 0 ======
Overall minimum packet latency = 5 (1 samples)
Overall average packet latency = 21.6288 (1 samples)
Overall maximum packet latency = 51 (1 samples)
Overall minimum network latency = 5 (1 samples)
Overall average network latency = 21.6288 (1 samples)
Overall maximum network latency = 51 (1 samples)
Overall minimum flit latency = 5 (1 samples)
Overall average flit latency = 21.6368 (1 samples)
Overall maximum flit latency = 51 (1 samples)
Overall minimum fragmentation = 0 (1 samples)
Overall average fragmentation = 0 (1 samples)
Overall maximum fragmentation = 0 (1 samples)
Overall minimum injected packet rate = 0.654 (1 samples)
Overall average injected packet rate = 0.700077 (1 samples)
Overall maximum injected packet rate = 0.747333 (1 samples)
Overall minimum accepted packet rate = 0.652667 (1 samples)
Overall average accepted packet rate = 0.700095 (1 samples)
Overall maximum accepted packet rate = 0.749333 (1 samples)
Overall minimum injected flit rate = 0.654 (1 samples)
Overall average injected flit rate = 0.700077 (1 samples)
Overall maximum injected flit rate = 0.747333 (1 samples)
Overall minimum accepted flit rate = 0.652667 (1 samples)
Overall average accepted flit rate = 0.700095 (1 samples)
Overall maximum accepted flit rate = 0.749333 (1 samples)
Overall average injected packet size = 1 (1 samples)
Overall average accepted packet size = 1 (1 samples)
Overall average hops = 4.87641 (1 samples)
Total run time 2677.67
