BEGIN Configuration File: ./FT3
injection_rate = 0.5;
traffic = shuffle;
use_size_power_of_two = yes;
routing_function = anca;
vc_buf_size = 16;
topology = fattree;
use_noc_latency = 0;
hold_switch_for_packet=0;

k = 22;
n = 3;

packet_size  = 1;
num_vcs      = 2;
vc_allocator = separable_input_first; 
sw_allocator = separable_input_first;

alloc_iters   = 1;
sample_period = 500;

wait_for_tail_credit = 0;
use_read_write       = 0;

credit_delay   = 2;
routing_delay  = 0;
vc_alloc_delay = 1;
sw_alloc_delay = 1;
st_final_delay = 1;

input_speedup     = 1;
output_speedup    = 1;
internal_speedup  = 2.0;

warmup_periods = 3;
sim_count      = 1;

priority = none;
injection_rate_uses_flits=1;

END Configuration File: ./FT3
Number of nodes: 10648
Number of routers: 1452
Fat Tree
 k = 22 levels = 3
 each switch - total radix =  44
 # of switches = 1452
 # of channels = 42592
 # of nodes ( size of network ) = 10648


Power of two: 8192
#################################################################################
0
Class 0:
Minimum packet latency = 5
Average packet latency = 18.9656
Maximum packet latency = 35
Minimum network latency = 5
Average network latency = 18.9656
Maximum network latency = 35
Slowest packet = 23714
Minimum flit latency = 5
Average flit latency = 18.9656
Maximum flit latency = 35
Slowest flit = 23714
Minimum fragmentation = 0
Average fragmentation = 0
Maximum fragmentation = 0
Minimum injected packet rate = 0.416 (at node 124)
Average injected packet rate = 0.499673
Maximum injected packet rate = 0.582 (at node 7316)
Minimum accepted packet rate = 0.396 (at node 7396)
Average accepted packet rate = 0.480604
Maximum accepted packet rate = 0.56 (at node 6441)
Minimum injected flit rate = 0.416 (at node 124)
Average injected flit rate = 0.499673
Maximum injected flit rate = 0.582 (at node 7316)
Minimum accepted flit rate = 0.396 (at node 7396)
Average accepted flit rate = 0.480604
Maximum accepted flit rate = 0.56 (at node 6441)
Average injected packet length = 1
Average accepted packet length = 1
Total in-flight flits = 78105 (0 measured)
latency change    = 1
throughput change = 1
0
Class 0:
Minimum packet latency = 5
Average packet latency = 18.9843
Maximum packet latency = 36
Minimum network latency = 5
Average network latency = 18.9843
Maximum network latency = 36
Slowest packet = 3765153
Minimum flit latency = 5
Average flit latency = 18.9843
Maximum flit latency = 36
Slowest flit = 3765153
Minimum fragmentation = 0
Average fragmentation = 0
Maximum fragmentation = 0
Minimum injected packet rate = 0.434 (at node 4299)
Average injected packet rate = 0.49985
Maximum injected packet rate = 0.556 (at node 7316)
Minimum accepted packet rate = 0.428 (at node 407)
Average accepted packet rate = 0.490424
Maximum accepted packet rate = 0.546 (at node 1522)
Minimum injected flit rate = 0.434 (at node 4299)
Average injected flit rate = 0.49985
Maximum injected flit rate = 0.556 (at node 7316)
Minimum accepted flit rate = 0.428 (at node 407)
Average accepted flit rate = 0.490424
Maximum accepted flit rate = 0.546 (at node 1522)
Average injected packet length = 1
Average accepted packet length = 1
Total in-flight flits = 77221 (0 measured)
latency change    = 0.000982758
throughput change = 0.0200226
0
Class 0:
Minimum packet latency = 5
Average packet latency = 18.9972
Maximum packet latency = 38
Minimum network latency = 5
Average network latency = 18.9972
Maximum network latency = 38
Slowest packet = 5280818
Minimum flit latency = 5
Average flit latency = 18.9972
Maximum flit latency = 38
Slowest flit = 5280818
Minimum fragmentation = 0
Average fragmentation = 0
Maximum fragmentation = 0
Minimum injected packet rate = 0.406 (at node 3237)
Average injected packet rate = 0.499993
Maximum injected packet rate = 0.576 (at node 5070)
Minimum accepted packet rate = 0.41 (at node 6474)
Average accepted packet rate = 0.499791
Maximum accepted packet rate = 0.576 (at node 2383)
Minimum injected flit rate = 0.406 (at node 3237)
Average injected flit rate = 0.499993
Maximum injected flit rate = 0.576 (at node 5070)
Minimum accepted flit rate = 0.41 (at node 6474)
Average accepted flit rate = 0.499791
Maximum accepted flit rate = 0.576 (at node 2383)
Average injected packet length = 1
Average accepted packet length = 1
Total in-flight flits = 78047 (0 measured)
latency change    = 0.000681848
throughput change = 0.0187417
Warmed up ...Time used is 1500 cycles
1
Class 0:
Minimum packet latency = 5
Average packet latency = 18.9856
Maximum packet latency = 37
Minimum network latency = 5
Average network latency = 18.9856
Maximum network latency = 37
Slowest packet = 6385138
Minimum flit latency = 5
Average flit latency = 19.0003
Maximum flit latency = 37
Slowest flit = 6385138
Minimum fragmentation = 0
Average fragmentation = 0
Maximum fragmentation = 0
Minimum injected packet rate = 0.416 (at node 119)
Average injected packet rate = 0.499688
Maximum injected packet rate = 0.582 (at node 3845)
Minimum accepted packet rate = 0.42 (at node 1590)
Average accepted packet rate = 0.499814
Maximum accepted packet rate = 0.576 (at node 5405)
Minimum injected flit rate = 0.416 (at node 119)
Average injected flit rate = 0.499688
Maximum injected flit rate = 0.582 (at node 3845)
Minimum accepted flit rate = 0.42 (at node 1590)
Average accepted flit rate = 0.499814
Maximum accepted flit rate = 0.576 (at node 5405)
Average injected packet length = 1
Average accepted packet length = 1
Total in-flight flits = 77533 (77533 measured)
latency change    = 0.000611767
throughput change = 4.54271e-05
1
Class 0:
Minimum packet latency = 5
Average packet latency = 18.9952
Maximum packet latency = 37
Minimum network latency = 5
Average network latency = 18.9952
Maximum network latency = 37
Slowest packet = 6385138
Minimum flit latency = 5
Average flit latency = 19.0023
Maximum flit latency = 37
Slowest flit = 6385138
Minimum fragmentation = 0
Average fragmentation = 0
Maximum fragmentation = 0
Minimum injected packet rate = 0.432 (at node 4383)
Average injected packet rate = 0.499945
Maximum injected packet rate = 0.561 (at node 2470)
Minimum accepted packet rate = 0.436 (at node 575)
Average accepted packet rate = 0.499981
Maximum accepted packet rate = 0.557 (at node 2651)
Minimum injected flit rate = 0.432 (at node 4383)
Average injected flit rate = 0.499945
Maximum injected flit rate = 0.561 (at node 2470)
Minimum accepted flit rate = 0.436 (at node 575)
Average accepted flit rate = 0.499981
Maximum accepted flit rate = 0.557 (at node 2651)
Average injected packet length = 1
Average accepted packet length = 1
Total in-flight flits = 77754 (77754 measured)
latency change    = 0.0005036
throughput change = 0.000334974
1
Class 0:
Minimum packet latency = 5
Average packet latency = 18.9976
Maximum packet latency = 38
Minimum network latency = 5
Average network latency = 18.9976
Maximum network latency = 38
Slowest packet = 10808022
Minimum flit latency = 5
Average flit latency = 19.0023
Maximum flit latency = 38
Slowest flit = 10808022
Minimum fragmentation = 0
Average fragmentation = 0
Maximum fragmentation = 0
Minimum injected packet rate = 0.444 (at node 4355)
Average injected packet rate = 0.500058
Maximum injected packet rate = 0.551333 (at node 5611)
Minimum accepted packet rate = 0.445333 (at node 519)
Average accepted packet rate = 0.500074
Maximum accepted packet rate = 0.552 (at node 3031)
Minimum injected flit rate = 0.444 (at node 4355)
Average injected flit rate = 0.500058
Maximum injected flit rate = 0.551333 (at node 5611)
Minimum accepted flit rate = 0.445333 (at node 519)
Average accepted flit rate = 0.500074
Maximum accepted flit rate = 0.552 (at node 3031)
Average injected packet length = 1
Average accepted packet length = 1
Total in-flight flits = 77856 (77856 measured)
latency change    = 0.000126921
throughput change = 0.000184869
Draining all recorded packets ...
Draining remaining packets ...
Time taken is 3063 cycles
====== Traffic class 0 ======
Overall minimum packet latency = 5 (1 samples)
Overall average packet latency = 19.0023 (1 samples)
Overall maximum packet latency = 38 (1 samples)
Overall minimum network latency = 5 (1 samples)
Overall average network latency = 19.0023 (1 samples)
Overall maximum network latency = 38 (1 samples)
Overall minimum flit latency = 5 (1 samples)
Overall average flit latency = 19.0062 (1 samples)
Overall maximum flit latency = 38 (1 samples)
Overall minimum fragmentation = 0 (1 samples)
Overall average fragmentation = 0 (1 samples)
Overall maximum fragmentation = 0 (1 samples)
Overall minimum injected packet rate = 0.444 (1 samples)
Overall average injected packet rate = 0.500058 (1 samples)
Overall maximum injected packet rate = 0.551333 (1 samples)
Overall minimum accepted packet rate = 0.445333 (1 samples)
Overall average accepted packet rate = 0.500074 (1 samples)
Overall maximum accepted packet rate = 0.552 (1 samples)
Overall minimum injected flit rate = 0.444 (1 samples)
Overall average injected flit rate = 0.500058 (1 samples)
Overall maximum injected flit rate = 0.551333 (1 samples)
Overall minimum accepted flit rate = 0.445333 (1 samples)
Overall average accepted flit rate = 0.500074 (1 samples)
Overall maximum accepted flit rate = 0.552 (1 samples)
Overall average injected packet size = 1 (1 samples)
Overall average accepted packet size = 1 (1 samples)
Overall average hops = 4.8765 (1 samples)
Total run time 1962.9
