BEGIN Configuration File: ./HC
injection_rate = 0.4;
traffic = bitrev;
routing_function = valiant;
vc_buf_size = 16;
topology = torus;
use_noc_latency = 0;
hold_switch_for_packet=0;

k = 2;
n = 7;

packet_size  = 1;
num_vcs      = 4;
vc_allocator = separable_input_first; 
sw_allocator = separable_input_first;

alloc_iters   = 1;
sample_period = 500;

wait_for_tail_credit = 0;
use_read_write       = 0;

credit_delay   = 2;
routing_delay  = 0;
vc_alloc_delay = 1;
sw_alloc_delay = 1;
st_final_delay = 1;

input_speedup     = 1;
output_speedup    = 1;
internal_speedup  = 2.0;

warmup_periods = 3;
sim_count      = 1;

priority = none;
injection_rate_uses_flits=1;

END Configuration File: ./HC
Number of nodes: 128
Number of routers: 128
0
Class 0:
Minimum packet latency = 5
Average packet latency = 26.8457
Maximum packet latency = 51
Minimum network latency = 5
Average network latency = 26.8457
Maximum network latency = 51
Slowest packet = 3203
Minimum flit latency = 5
Average flit latency = 26.8457
Maximum flit latency = 51
Slowest flit = 3203
Minimum fragmentation = 0
Average fragmentation = 0
Maximum fragmentation = 0
Minimum injected packet rate = 0.346 (at node 53)
Average injected packet rate = 0.397437
Maximum injected packet rate = 0.444 (at node 64)
Minimum accepted packet rate = 0.322 (at node 113)
Average accepted packet rate = 0.376047
Maximum accepted packet rate = 0.42 (at node 1)
Minimum injected flit rate = 0.346 (at node 53)
Average injected flit rate = 0.397437
Maximum injected flit rate = 0.444 (at node 64)
Minimum accepted flit rate = 0.322 (at node 113)
Average accepted flit rate = 0.376047
Maximum accepted flit rate = 0.42 (at node 1)
Average injected packet length = 1
Average accepted packet length = 1
Total in-flight flits = 1369 (0 measured)
latency change    = 1
throughput change = 1
0
Class 0:
Minimum packet latency = 5
Average packet latency = 26.9137
Maximum packet latency = 56
Minimum network latency = 5
Average network latency = 26.9137
Maximum network latency = 56
Slowest packet = 45570
Minimum flit latency = 5
Average flit latency = 26.9137
Maximum flit latency = 56
Slowest flit = 45570
Minimum fragmentation = 0
Average fragmentation = 0
Maximum fragmentation = 0
Minimum injected packet rate = 0.362 (at node 41)
Average injected packet rate = 0.398383
Maximum injected packet rate = 0.44 (at node 21)
Minimum accepted packet rate = 0.349 (at node 74)
Average accepted packet rate = 0.387773
Maximum accepted packet rate = 0.422 (at node 84)
Minimum injected flit rate = 0.362 (at node 41)
Average injected flit rate = 0.398383
Maximum injected flit rate = 0.44 (at node 21)
Minimum accepted flit rate = 0.349 (at node 74)
Average accepted flit rate = 0.387773
Maximum accepted flit rate = 0.422 (at node 84)
Average injected packet length = 1
Average accepted packet length = 1
Total in-flight flits = 1358 (0 measured)
latency change    = 0.00252619
throughput change = 0.0302408
0
Class 0:
Minimum packet latency = 5
Average packet latency = 26.9812
Maximum packet latency = 53
Minimum network latency = 5
Average network latency = 26.9812
Maximum network latency = 53
Slowest packet = 54760
Minimum flit latency = 5
Average flit latency = 26.9812
Maximum flit latency = 53
Slowest flit = 54760
Minimum fragmentation = 0
Average fragmentation = 0
Maximum fragmentation = 0
Minimum injected packet rate = 0.338 (at node 45)
Average injected packet rate = 0.400297
Maximum injected packet rate = 0.446 (at node 61)
Minimum accepted packet rate = 0.33 (at node 90)
Average accepted packet rate = 0.399781
Maximum accepted packet rate = 0.454 (at node 58)
Minimum injected flit rate = 0.338 (at node 45)
Average injected flit rate = 0.400297
Maximum injected flit rate = 0.446 (at node 61)
Minimum accepted flit rate = 0.33 (at node 90)
Average accepted flit rate = 0.399781
Maximum accepted flit rate = 0.454 (at node 58)
Average injected packet length = 1
Average accepted packet length = 1
Total in-flight flits = 1391 (0 measured)
latency change    = 0.00250289
throughput change = 0.030036
Warmed up ...Time used is 1500 cycles
1
Class 0:
Minimum packet latency = 5
Average packet latency = 26.8233
Maximum packet latency = 54
Minimum network latency = 5
Average network latency = 26.8233
Maximum network latency = 54
Slowest packet = 90676
Minimum flit latency = 5
Average flit latency = 26.9275
Maximum flit latency = 54
Slowest flit = 90676
Minimum fragmentation = 0
Average fragmentation = 0
Maximum fragmentation = 0
Minimum injected packet rate = 0.344 (at node 103)
Average injected packet rate = 0.398953
Maximum injected packet rate = 0.442 (at node 1)
Minimum accepted packet rate = 0.352 (at node 90)
Average accepted packet rate = 0.398156
Maximum accepted packet rate = 0.446 (at node 17)
Minimum injected flit rate = 0.344 (at node 103)
Average injected flit rate = 0.398953
Maximum injected flit rate = 0.442 (at node 1)
Minimum accepted flit rate = 0.352 (at node 90)
Average accepted flit rate = 0.398156
Maximum accepted flit rate = 0.446 (at node 17)
Average injected packet length = 1
Average accepted packet length = 1
Total in-flight flits = 1442 (1442 measured)
latency change    = 0.00588533
throughput change = 0.00408131
1
Class 0:
Minimum packet latency = 5
Average packet latency = 26.8831
Maximum packet latency = 55
Minimum network latency = 5
Average network latency = 26.8831
Maximum network latency = 55
Slowest packet = 100006
Minimum flit latency = 5
Average flit latency = 26.9334
Maximum flit latency = 55
Slowest flit = 100006
Minimum fragmentation = 0
Average fragmentation = 0
Maximum fragmentation = 0
Minimum injected packet rate = 0.363 (at node 105)
Average injected packet rate = 0.399172
Maximum injected packet rate = 0.446 (at node 34)
Minimum accepted packet rate = 0.358 (at node 75)
Average accepted packet rate = 0.399516
Maximum accepted packet rate = 0.446 (at node 34)
Minimum injected flit rate = 0.363 (at node 105)
Average injected flit rate = 0.399172
Maximum injected flit rate = 0.446 (at node 34)
Minimum accepted flit rate = 0.358 (at node 75)
Average accepted flit rate = 0.399516
Maximum accepted flit rate = 0.446 (at node 34)
Average injected packet length = 1
Average accepted packet length = 1
Total in-flight flits = 1347 (1347 measured)
latency change    = 0.0022249
throughput change = 0.00340256
1
Class 0:
Minimum packet latency = 5
Average packet latency = 26.9204
Maximum packet latency = 55
Minimum network latency = 5
Average network latency = 26.9204
Maximum network latency = 55
Slowest packet = 100006
Minimum flit latency = 5
Average flit latency = 26.9532
Maximum flit latency = 55
Slowest flit = 100006
Minimum fragmentation = 0
Average fragmentation = 0
Maximum fragmentation = 0
Minimum injected packet rate = 0.373333 (at node 33)
Average injected packet rate = 0.39899
Maximum injected packet rate = 0.426 (at node 79)
Minimum accepted packet rate = 0.371333 (at node 49)
Average accepted packet rate = 0.39926
Maximum accepted packet rate = 0.428 (at node 121)
Minimum injected flit rate = 0.373333 (at node 33)
Average injected flit rate = 0.39899
Maximum injected flit rate = 0.426 (at node 79)
Minimum accepted flit rate = 0.371333 (at node 49)
Average accepted flit rate = 0.39926
Maximum accepted flit rate = 0.428 (at node 121)
Average injected packet length = 1
Average accepted packet length = 1
Total in-flight flits = 1339 (1339 measured)
latency change    = 0.00138191
throughput change = 0.000639203
Draining all recorded packets ...
Draining remaining packets ...
Time taken is 3092 cycles
====== Traffic class 0 ======
Overall minimum packet latency = 5 (1 samples)
Overall average packet latency = 26.944 (1 samples)
Overall maximum packet latency = 55 (1 samples)
Overall minimum network latency = 5 (1 samples)
Overall average network latency = 26.944 (1 samples)
Overall maximum network latency = 55 (1 samples)
Overall minimum flit latency = 5 (1 samples)
Overall average flit latency = 26.9662 (1 samples)
Overall maximum flit latency = 55 (1 samples)
Overall minimum fragmentation = 0 (1 samples)
Overall average fragmentation = 0 (1 samples)
Overall maximum fragmentation = 0 (1 samples)
Overall minimum injected packet rate = 0.373333 (1 samples)
Overall average injected packet rate = 0.39899 (1 samples)
Overall maximum injected packet rate = 0.426 (1 samples)
Overall minimum accepted packet rate = 0.371333 (1 samples)
Overall average accepted packet rate = 0.39926 (1 samples)
Overall maximum accepted packet rate = 0.428 (1 samples)
Overall minimum injected flit rate = 0.373333 (1 samples)
Overall average injected flit rate = 0.39899 (1 samples)
Overall maximum injected flit rate = 0.426 (1 samples)
Overall minimum accepted flit rate = 0.371333 (1 samples)
Overall average accepted flit rate = 0.39926 (1 samples)
Overall maximum accepted flit rate = 0.428 (1 samples)
Overall average injected packet size = 1 (1 samples)
Overall average accepted packet size = 1 (1 samples)
Overall average hops = 8.0011 (1 samples)
Total run time 34.3659
