BEGIN Configuration File: ./HC
injection_rate = 0.4;
traffic = bitrev;
routing_function = dim_order;
vc_buf_size = 16;
topology = torus;
use_noc_latency = 0;
hold_switch_for_packet=0;

k = 2;
n = 7;

packet_size  = 1;
num_vcs      = 2;
vc_allocator = separable_input_first; 
sw_allocator = separable_input_first;

alloc_iters   = 1;
sample_period = 500;

wait_for_tail_credit = 0;
use_read_write       = 0;

credit_delay   = 2;
routing_delay  = 0;
vc_alloc_delay = 1;
sw_alloc_delay = 1;
st_final_delay = 1;

input_speedup     = 1;
output_speedup    = 1;
internal_speedup  = 2.0;

warmup_periods = 3;
sim_count      = 1;

priority = none;
injection_rate_uses_flits=1;

END Configuration File: ./HC
Number of nodes: 128
Number of routers: 128
0
Class 0:
Minimum packet latency = 5
Average packet latency = 24.1542
Maximum packet latency = 175
Minimum network latency = 5
Average network latency = 24.1542
Maximum network latency = 175
Slowest packet = 16362
Minimum flit latency = 5
Average flit latency = 24.1542
Maximum flit latency = 175
Slowest flit = 16362
Minimum fragmentation = 0
Average fragmentation = 0
Maximum fragmentation = 0
Minimum injected packet rate = 0.344 (at node 71)
Average injected packet rate = 0.397391
Maximum injected packet rate = 0.442 (at node 79)
Minimum accepted packet rate = 0.288 (at node 44)
Average accepted packet rate = 0.369437
Maximum accepted packet rate = 0.434 (at node 42)
Minimum injected flit rate = 0.344 (at node 71)
Average injected flit rate = 0.397391
Maximum injected flit rate = 0.442 (at node 79)
Minimum accepted flit rate = 0.288 (at node 44)
Average accepted flit rate = 0.369437
Maximum accepted flit rate = 0.434 (at node 42)
Average injected packet length = 1
Average accepted packet length = 1
Total in-flight flits = 1789 (0 measured)
latency change    = 1
throughput change = 1
0
Class 0:
Minimum packet latency = 5
Average packet latency = 31.9876
Maximum packet latency = 305
Minimum network latency = 5
Average network latency = 31.7232
Maximum network latency = 305
Slowest packet = 35230
Minimum flit latency = 5
Average flit latency = 31.7232
Maximum flit latency = 305
Slowest flit = 35230
Minimum fragmentation = 0
Average fragmentation = 0
Maximum fragmentation = 0
Minimum injected packet rate = 0.361 (at node 5)
Average injected packet rate = 0.396359
Maximum injected packet rate = 0.433 (at node 105)
Minimum accepted packet rate = 0.307 (at node 120)
Average accepted packet rate = 0.377484
Maximum accepted packet rate = 0.432 (at node 75)
Minimum injected flit rate = 0.361 (at node 5)
Average injected flit rate = 0.396359
Maximum injected flit rate = 0.433 (at node 105)
Minimum accepted flit rate = 0.307 (at node 120)
Average accepted flit rate = 0.377484
Maximum accepted flit rate = 0.432 (at node 75)
Average injected packet length = 1
Average accepted packet length = 1
Total in-flight flits = 2426 (0 measured)
latency change    = 0.244888
throughput change = 0.0213171
0
Class 0:
Minimum packet latency = 5
Average packet latency = 56.4048
Maximum packet latency = 423
Minimum network latency = 5
Average network latency = 49.5824
Maximum network latency = 327
Slowest packet = 35483
Minimum flit latency = 5
Average flit latency = 49.5824
Maximum flit latency = 327
Slowest flit = 35483
Minimum fragmentation = 0
Average fragmentation = 0
Maximum fragmentation = 0
Minimum injected packet rate = 0.296 (at node 78)
Average injected packet rate = 0.386531
Maximum injected packet rate = 0.454 (at node 76)
Minimum accepted packet rate = 0.276 (at node 120)
Average accepted packet rate = 0.382156
Maximum accepted packet rate = 0.458 (at node 11)
Minimum injected flit rate = 0.296 (at node 78)
Average injected flit rate = 0.386531
Maximum injected flit rate = 0.454 (at node 76)
Minimum accepted flit rate = 0.276 (at node 120)
Average accepted flit rate = 0.382156
Maximum accepted flit rate = 0.458 (at node 11)
Average injected packet length = 1
Average accepted packet length = 1
Total in-flight flits = 2711 (0 measured)
latency change    = 0.432892
throughput change = 0.012225
Warmed up ...Time used is 1500 cycles
1
Class 0:
Minimum packet latency = 5
Average packet latency = 59.1303
Maximum packet latency = 596
Minimum network latency = 5
Average network latency = 41.5326
Maximum network latency = 345
Slowest packet = 75885
Minimum flit latency = 5
Average flit latency = 54.719
Maximum flit latency = 345
Slowest flit = 77198
Minimum fragmentation = 0
Average fragmentation = 0
Maximum fragmentation = 0
Minimum injected packet rate = 0.294 (at node 70)
Average injected packet rate = 0.383641
Maximum injected packet rate = 0.482 (at node 12)
Minimum accepted packet rate = 0.298 (at node 27)
Average accepted packet rate = 0.384078
Maximum accepted packet rate = 0.466 (at node 24)
Minimum injected flit rate = 0.294 (at node 70)
Average injected flit rate = 0.383641
Maximum injected flit rate = 0.482 (at node 12)
Minimum accepted flit rate = 0.298 (at node 27)
Average accepted flit rate = 0.384078
Maximum accepted flit rate = 0.466 (at node 24)
Average injected packet length = 1
Average accepted packet length = 1
Total in-flight flits = 2693 (2693 measured)
latency change    = 0.046093
throughput change = 0.00500386
1
Class 0:
Minimum packet latency = 5
Average packet latency = 75.3377
Maximum packet latency = 639
Minimum network latency = 5
Average network latency = 48.1305
Maximum network latency = 365
Slowest packet = 75885
Minimum flit latency = 5
Average flit latency = 54.3436
Maximum flit latency = 365
Slowest flit = 97878
Minimum fragmentation = 0
Average fragmentation = 0
Maximum fragmentation = 0
Minimum injected packet rate = 0.289 (at node 112)
Average injected packet rate = 0.385039
Maximum injected packet rate = 0.452 (at node 12)
Minimum accepted packet rate = 0.288 (at node 7)
Average accepted packet rate = 0.385086
Maximum accepted packet rate = 0.456 (at node 24)
Minimum injected flit rate = 0.289 (at node 112)
Average injected flit rate = 0.385039
Maximum injected flit rate = 0.452 (at node 12)
Minimum accepted flit rate = 0.288 (at node 7)
Average accepted flit rate = 0.385086
Maximum accepted flit rate = 0.456 (at node 24)
Average injected packet length = 1
Average accepted packet length = 1
Total in-flight flits = 2716 (2716 measured)
latency change    = 0.215131
throughput change = 0.00261711
1
Class 0:
Minimum packet latency = 5
Average packet latency = 86.2895
Maximum packet latency = 705
Minimum network latency = 5
Average network latency = 50.2745
Maximum network latency = 387
Slowest packet = 75885
Minimum flit latency = 5
Average flit latency = 54.3425
Maximum flit latency = 387
Slowest flit = 106378
Minimum fragmentation = 0
Average fragmentation = 0
Maximum fragmentation = 0
Minimum injected packet rate = 0.295333 (at node 90)
Average injected packet rate = 0.384458
Maximum injected packet rate = 0.437333 (at node 92)
Minimum accepted packet rate = 0.305333 (at node 7)
Average accepted packet rate = 0.384656
Maximum accepted packet rate = 0.439333 (at node 29)
Minimum injected flit rate = 0.295333 (at node 90)
Average injected flit rate = 0.384458
Maximum injected flit rate = 0.437333 (at node 92)
Minimum accepted flit rate = 0.305333 (at node 7)
Average accepted flit rate = 0.384656
Maximum accepted flit rate = 0.439333 (at node 29)
Average injected packet length = 1
Average accepted packet length = 1
Total in-flight flits = 2675 (2675 measured)
latency change    = 0.126919
throughput change = 0.00111707
1
Class 0:
Minimum packet latency = 5
Average packet latency = 96.1387
Maximum packet latency = 779
Minimum network latency = 5
Average network latency = 51.2513
Maximum network latency = 387
Slowest packet = 75885
Minimum flit latency = 5
Average flit latency = 54.2781
Maximum flit latency = 387
Slowest flit = 106378
Minimum fragmentation = 0
Average fragmentation = 0
Maximum fragmentation = 0
Minimum injected packet rate = 0.3095 (at node 70)
Average injected packet rate = 0.384254
Maximum injected packet rate = 0.4315 (at node 92)
Minimum accepted packet rate = 0.3075 (at node 45)
Average accepted packet rate = 0.384313
Maximum accepted packet rate = 0.431 (at node 29)
Minimum injected flit rate = 0.3095 (at node 70)
Average injected flit rate = 0.384254
Maximum injected flit rate = 0.4315 (at node 92)
Minimum accepted flit rate = 0.3075 (at node 45)
Average accepted flit rate = 0.384313
Maximum accepted flit rate = 0.431 (at node 29)
Average injected packet length = 1
Average accepted packet length = 1
Total in-flight flits = 2706 (2706 measured)
latency change    = 0.102448
throughput change = 0.000894454
1
Class 0:
Minimum packet latency = 5
Average packet latency = 105.018
Maximum packet latency = 889
Minimum network latency = 5
Average network latency = 51.9278
Maximum network latency = 387
Slowest packet = 75885
Minimum flit latency = 5
Average flit latency = 54.3365
Maximum flit latency = 387
Slowest flit = 106378
Minimum fragmentation = 0
Average fragmentation = 0
Maximum fragmentation = 0
Minimum injected packet rate = 0.3092 (at node 112)
Average injected packet rate = 0.383881
Maximum injected packet rate = 0.4268 (at node 12)
Minimum accepted packet rate = 0.3084 (at node 45)
Average accepted packet rate = 0.383966
Maximum accepted packet rate = 0.4316 (at node 24)
Minimum injected flit rate = 0.3092 (at node 112)
Average injected flit rate = 0.383881
Maximum injected flit rate = 0.4268 (at node 12)
Minimum accepted flit rate = 0.3084 (at node 45)
Average accepted flit rate = 0.383966
Maximum accepted flit rate = 0.4316 (at node 24)
Average injected packet length = 1
Average accepted packet length = 1
Total in-flight flits = 2691 (2691 measured)
latency change    = 0.084549
throughput change = 0.000903401
1
Class 0:
Minimum packet latency = 5
Average packet latency = 113.873
Maximum packet latency = 1032
Minimum network latency = 5
Average network latency = 52.193
Maximum network latency = 387
Slowest packet = 75885
Minimum flit latency = 5
Average flit latency = 54.1966
Maximum flit latency = 387
Slowest flit = 106378
Minimum fragmentation = 0
Average fragmentation = 0
Maximum fragmentation = 0
Minimum injected packet rate = 0.304333 (at node 112)
Average injected packet rate = 0.383581
Maximum injected packet rate = 0.418667 (at node 12)
Minimum accepted packet rate = 0.306667 (at node 7)
Average accepted packet rate = 0.383727
Maximum accepted packet rate = 0.420667 (at node 24)
Minimum injected flit rate = 0.304333 (at node 112)
Average injected flit rate = 0.383581
Maximum injected flit rate = 0.418667 (at node 12)
Minimum accepted flit rate = 0.306667 (at node 7)
Average accepted flit rate = 0.383727
Maximum accepted flit rate = 0.420667 (at node 24)
Average injected packet length = 1
Average accepted packet length = 1
Total in-flight flits = 2661 (2661 measured)
latency change    = 0.0777623
throughput change = 0.000623002
1
Class 0:
Minimum packet latency = 5
Average packet latency = 123.682
Maximum packet latency = 1145
Minimum network latency = 5
Average network latency = 52.6084
Maximum network latency = 387
Slowest packet = 75885
Minimum flit latency = 5
Average flit latency = 54.3201
Maximum flit latency = 387
Slowest flit = 106378
Minimum fragmentation = 0
Average fragmentation = 0
Maximum fragmentation = 0
Minimum injected packet rate = 0.307429 (at node 90)
Average injected packet rate = 0.383388
Maximum injected packet rate = 0.419714 (at node 88)
Minimum accepted packet rate = 0.306286 (at node 45)
Average accepted packet rate = 0.383529
Maximum accepted packet rate = 0.418571 (at node 8)
Minimum injected flit rate = 0.307429 (at node 90)
Average injected flit rate = 0.383388
Maximum injected flit rate = 0.419714 (at node 88)
Minimum accepted flit rate = 0.306286 (at node 45)
Average accepted flit rate = 0.383529
Maximum accepted flit rate = 0.418571 (at node 8)
Average injected packet length = 1
Average accepted packet length = 1
Total in-flight flits = 2654 (2654 measured)
latency change    = 0.0793109
throughput change = 0.000515071
Draining all recorded packets ...
Class 0:
Remaining flits: 280814 281368 281569 282586 282683 282764 282779 282928 282952 283021 [...] (2708 flits)
Measured flits: 280814 281368 281569 282586 282683 282764 282779 282928 282952 283021 [...] (585 flits)
Draining remaining packets ...
Time taken is 6425 cycles
====== Traffic class 0 ======
Overall minimum packet latency = 5 (1 samples)
Overall average packet latency = 169.801 (1 samples)
Overall maximum packet latency = 1318 (1 samples)
Overall minimum network latency = 5 (1 samples)
Overall average network latency = 60.4984 (1 samples)
Overall maximum network latency = 387 (1 samples)
Overall minimum flit latency = 5 (1 samples)
Overall average flit latency = 55.0718 (1 samples)
Overall maximum flit latency = 387 (1 samples)
Overall minimum fragmentation = 0 (1 samples)
Overall average fragmentation = 0 (1 samples)
Overall maximum fragmentation = 0 (1 samples)
Overall minimum injected packet rate = 0.307429 (1 samples)
Overall average injected packet rate = 0.383388 (1 samples)
Overall maximum injected packet rate = 0.419714 (1 samples)
Overall minimum accepted packet rate = 0.306286 (1 samples)
Overall average accepted packet rate = 0.383529 (1 samples)
Overall maximum accepted packet rate = 0.418571 (1 samples)
Overall minimum injected flit rate = 0.307429 (1 samples)
Overall average injected flit rate = 0.383388 (1 samples)
Overall maximum injected flit rate = 0.419714 (1 samples)
Overall minimum accepted flit rate = 0.306286 (1 samples)
Overall average accepted flit rate = 0.383529 (1 samples)
Overall maximum accepted flit rate = 0.418571 (1 samples)
Overall average injected packet size = 1 (1 samples)
Overall average accepted packet size = 1 (1 samples)
Overall average hops = 4.0084 (1 samples)
Total run time 42.5024
