BEGIN Configuration File: ./HC
injection_rate = 0.01;
traffic = bitrev;
routing_function = valiant;
vc_buf_size = 16;
topology = torus;
use_noc_latency = 0;
hold_switch_for_packet=0;

k = 2;
n = 7;

packet_size  = 1;
num_vcs      = 4;
vc_allocator = separable_input_first; 
sw_allocator = separable_input_first;

alloc_iters   = 1;
sample_period = 500;

wait_for_tail_credit = 0;
use_read_write       = 0;

credit_delay   = 2;
routing_delay  = 0;
vc_alloc_delay = 1;
sw_alloc_delay = 1;
st_final_delay = 1;

input_speedup     = 1;
output_speedup    = 1;
internal_speedup  = 2.0;

warmup_periods = 3;
sim_count      = 1;

priority = none;
injection_rate_uses_flits=1;

END Configuration File: ./HC
Number of nodes: 128
Number of routers: 128
0
Class 0:
Minimum packet latency = 11
Average packet latency = 25.8906
Maximum packet latency = 47
Minimum network latency = 11
Average network latency = 25.8906
Maximum network latency = 47
Slowest packet = 359
Minimum flit latency = 11
Average flit latency = 25.8906
Maximum flit latency = 47
Slowest flit = 359
Minimum fragmentation = 0
Average fragmentation = 0
Maximum fragmentation = 0
Minimum injected packet rate = 0 (at node 21)
Average injected packet rate = 0.00960937
Maximum injected packet rate = 0.022 (at node 102)
Minimum accepted packet rate = 0 (at node 84)
Average accepted packet rate = 0.00914062
Maximum accepted packet rate = 0.022 (at node 51)
Minimum injected flit rate = 0 (at node 21)
Average injected flit rate = 0.00960937
Maximum injected flit rate = 0.022 (at node 102)
Minimum accepted flit rate = 0 (at node 84)
Average accepted flit rate = 0.00914062
Maximum accepted flit rate = 0.022 (at node 51)
Average injected packet length = 1
Average accepted packet length = 1
Total in-flight flits = 30 (0 measured)
latency change    = 1
throughput change = 1
0
Class 0:
Minimum packet latency = 5
Average packet latency = 25.8745
Maximum packet latency = 47
Minimum network latency = 5
Average network latency = 25.8745
Maximum network latency = 47
Slowest packet = 359
Minimum flit latency = 5
Average flit latency = 25.8745
Maximum flit latency = 47
Slowest flit = 359
Minimum fragmentation = 0
Average fragmentation = 0
Maximum fragmentation = 0
Minimum injected packet rate = 0.003 (at node 38)
Average injected packet rate = 0.00977344
Maximum injected packet rate = 0.018 (at node 60)
Minimum accepted packet rate = 0.003 (at node 39)
Average accepted packet rate = 0.00952344
Maximum accepted packet rate = 0.018 (at node 30)
Minimum injected flit rate = 0.003 (at node 38)
Average injected flit rate = 0.00977344
Maximum injected flit rate = 0.018 (at node 60)
Minimum accepted flit rate = 0.003 (at node 39)
Average accepted flit rate = 0.00952344
Maximum accepted flit rate = 0.018 (at node 30)
Average injected packet length = 1
Average accepted packet length = 1
Total in-flight flits = 32 (0 measured)
latency change    = 0.00062266
throughput change = 0.0401969
0
Class 0:
Minimum packet latency = 11
Average packet latency = 26.3126
Maximum packet latency = 47
Minimum network latency = 11
Average network latency = 26.3126
Maximum network latency = 47
Slowest packet = 1608
Minimum flit latency = 11
Average flit latency = 26.3126
Maximum flit latency = 47
Slowest flit = 1608
Minimum fragmentation = 0
Average fragmentation = 0
Maximum fragmentation = 0
Minimum injected packet rate = 0.002 (at node 22)
Average injected packet rate = 0.0103281
Maximum injected packet rate = 0.024 (at node 65)
Minimum accepted packet rate = 0.002 (at node 3)
Average accepted packet rate = 0.0102969
Maximum accepted packet rate = 0.026 (at node 65)
Minimum injected flit rate = 0.002 (at node 22)
Average injected flit rate = 0.0103281
Maximum injected flit rate = 0.024 (at node 65)
Minimum accepted flit rate = 0.002 (at node 3)
Average accepted flit rate = 0.0102969
Maximum accepted flit rate = 0.026 (at node 65)
Average injected packet length = 1
Average accepted packet length = 1
Total in-flight flits = 34 (0 measured)
latency change    = 0.0166501
throughput change = 0.0751138
Warmed up ...Time used is 1500 cycles
1
Class 0:
Minimum packet latency = 11
Average packet latency = 26.0782
Maximum packet latency = 47
Minimum network latency = 11
Average network latency = 26.0782
Maximum network latency = 47
Slowest packet = 1919
Minimum flit latency = 11
Average flit latency = 26.2346
Maximum flit latency = 47
Slowest flit = 1919
Minimum fragmentation = 0
Average fragmentation = 0
Maximum fragmentation = 0
Minimum injected packet rate = 0.002 (at node 61)
Average injected packet rate = 0.0100469
Maximum injected packet rate = 0.022 (at node 85)
Minimum accepted packet rate = 0.002 (at node 27)
Average accepted packet rate = 0.00992188
Maximum accepted packet rate = 0.022 (at node 83)
Minimum injected flit rate = 0.002 (at node 61)
Average injected flit rate = 0.0100469
Maximum injected flit rate = 0.022 (at node 85)
Minimum accepted flit rate = 0.002 (at node 27)
Average accepted flit rate = 0.00992188
Maximum accepted flit rate = 0.022 (at node 83)
Average injected packet length = 1
Average accepted packet length = 1
Total in-flight flits = 42 (42 measured)
latency change    = 0.00898804
throughput change = 0.0377953
1
Class 0:
Minimum packet latency = 5
Average packet latency = 26.1381
Maximum packet latency = 47
Minimum network latency = 5
Average network latency = 26.1381
Maximum network latency = 47
Slowest packet = 1919
Minimum flit latency = 5
Average flit latency = 26.2154
Maximum flit latency = 47
Slowest flit = 1919
Minimum fragmentation = 0
Average fragmentation = 0
Maximum fragmentation = 0
Minimum injected packet rate = 0.003 (at node 27)
Average injected packet rate = 0.00976562
Maximum injected packet rate = 0.018 (at node 107)
Minimum accepted packet rate = 0.003 (at node 108)
Average accepted packet rate = 0.00982813
Maximum accepted packet rate = 0.018 (at node 91)
Minimum injected flit rate = 0.003 (at node 27)
Average injected flit rate = 0.00976562
Maximum injected flit rate = 0.018 (at node 107)
Minimum accepted flit rate = 0.003 (at node 108)
Average accepted flit rate = 0.00982813
Maximum accepted flit rate = 0.018 (at node 91)
Average injected packet length = 1
Average accepted packet length = 1
Total in-flight flits = 26 (26 measured)
latency change    = 0.00229049
throughput change = 0.00953895
1
Class 0:
Minimum packet latency = 5
Average packet latency = 26.0169
Maximum packet latency = 47
Minimum network latency = 5
Average network latency = 26.0169
Maximum network latency = 47
Slowest packet = 1919
Minimum flit latency = 5
Average flit latency = 26.0714
Maximum flit latency = 47
Slowest flit = 1919
Minimum fragmentation = 0
Average fragmentation = 0
Maximum fragmentation = 0
Minimum injected packet rate = 0.00333333 (at node 94)
Average injected packet rate = 0.00970833
Maximum injected packet rate = 0.0153333 (at node 36)
Minimum accepted packet rate = 0.00333333 (at node 61)
Average accepted packet rate = 0.00970312
Maximum accepted packet rate = 0.0146667 (at node 4)
Minimum injected flit rate = 0.00333333 (at node 94)
Average injected flit rate = 0.00970833
Maximum injected flit rate = 0.0153333 (at node 36)
Minimum accepted flit rate = 0.00333333 (at node 61)
Average accepted flit rate = 0.00970312
Maximum accepted flit rate = 0.0146667 (at node 4)
Average injected packet length = 1
Average accepted packet length = 1
Total in-flight flits = 35 (35 measured)
latency change    = 0.00465553
throughput change = 0.0128824
Draining all recorded packets ...
Draining remaining packets ...
Time taken is 3068 cycles
====== Traffic class 0 ======
Overall minimum packet latency = 5 (1 samples)
Overall average packet latency = 26.0408 (1 samples)
Overall maximum packet latency = 47 (1 samples)
Overall minimum network latency = 5 (1 samples)
Overall average network latency = 26.0408 (1 samples)
Overall maximum network latency = 47 (1 samples)
Overall minimum flit latency = 5 (1 samples)
Overall average flit latency = 26.1134 (1 samples)
Overall maximum flit latency = 47 (1 samples)
Overall minimum fragmentation = 0 (1 samples)
Overall average fragmentation = 0 (1 samples)
Overall maximum fragmentation = 0 (1 samples)
Overall minimum injected packet rate = 0.00333333 (1 samples)
Overall average injected packet rate = 0.00970833 (1 samples)
Overall maximum injected packet rate = 0.0153333 (1 samples)
Overall minimum accepted packet rate = 0.00333333 (1 samples)
Overall average accepted packet rate = 0.00970312 (1 samples)
Overall maximum accepted packet rate = 0.0146667 (1 samples)
Overall minimum injected flit rate = 0.00333333 (1 samples)
Overall average injected flit rate = 0.00970833 (1 samples)
Overall maximum injected flit rate = 0.0153333 (1 samples)
Overall minimum accepted flit rate = 0.00333333 (1 samples)
Overall average accepted flit rate = 0.00970312 (1 samples)
Overall maximum accepted flit rate = 0.0146667 (1 samples)
Overall average injected packet size = 1 (1 samples)
Overall average accepted packet size = 1 (1 samples)
Overall average hops = 8.00751 (1 samples)
Total run time 5.41146
