BEGIN Configuration File: ./HC
injection_rate = 0.6;
traffic = bitrev;
routing_function = valiant;
vc_buf_size = 16;
topology = torus;
use_noc_latency = 0;
hold_switch_for_packet=0;

k = 2;
n = 7;

packet_size  = 1;
num_vcs      = 4;
vc_allocator = separable_input_first; 
sw_allocator = separable_input_first;

alloc_iters   = 1;
sample_period = 500;

wait_for_tail_credit = 0;
use_read_write       = 0;

credit_delay   = 2;
routing_delay  = 0;
vc_alloc_delay = 1;
sw_alloc_delay = 1;
st_final_delay = 1;

input_speedup     = 1;
output_speedup    = 1;
internal_speedup  = 2.0;

warmup_periods = 3;
sim_count      = 1;

priority = none;
injection_rate_uses_flits=1;

END Configuration File: ./HC
Number of nodes: 128
Number of routers: 128
0
Class 0:
Minimum packet latency = 5
Average packet latency = 27.6326
Maximum packet latency = 59
Minimum network latency = 5
Average network latency = 27.6326
Maximum network latency = 59
Slowest packet = 3195
Minimum flit latency = 5
Average flit latency = 27.6326
Maximum flit latency = 59
Slowest flit = 3195
Minimum fragmentation = 0
Average fragmentation = 0
Maximum fragmentation = 0
Minimum injected packet rate = 0.534 (at node 126)
Average injected packet rate = 0.597641
Maximum injected packet rate = 0.65 (at node 63)
Minimum accepted packet rate = 0.514 (at node 63)
Average accepted packet rate = 0.564984
Maximum accepted packet rate = 0.616 (at node 40)
Minimum injected flit rate = 0.534 (at node 126)
Average injected flit rate = 0.597641
Maximum injected flit rate = 0.65 (at node 63)
Minimum accepted flit rate = 0.514 (at node 63)
Average accepted flit rate = 0.564984
Maximum accepted flit rate = 0.616 (at node 40)
Average injected packet length = 1
Average accepted packet length = 1
Total in-flight flits = 2090 (0 measured)
latency change    = 1
throughput change = 1
0
Class 0:
Minimum packet latency = 5
Average packet latency = 27.728
Maximum packet latency = 59
Minimum network latency = 5
Average network latency = 27.728
Maximum network latency = 59
Slowest packet = 3195
Minimum flit latency = 5
Average flit latency = 27.728
Maximum flit latency = 59
Slowest flit = 3195
Minimum fragmentation = 0
Average fragmentation = 0
Maximum fragmentation = 0
Minimum injected packet rate = 0.557 (at node 76)
Average injected packet rate = 0.599945
Maximum injected packet rate = 0.642 (at node 70)
Minimum accepted packet rate = 0.539 (at node 25)
Average accepted packet rate = 0.583164
Maximum accepted packet rate = 0.624 (at node 49)
Minimum injected flit rate = 0.557 (at node 76)
Average injected flit rate = 0.599945
Maximum injected flit rate = 0.642 (at node 70)
Minimum accepted flit rate = 0.539 (at node 25)
Average accepted flit rate = 0.583164
Maximum accepted flit rate = 0.624 (at node 49)
Average injected packet length = 1
Average accepted packet length = 1
Total in-flight flits = 2148 (0 measured)
latency change    = 0.00344099
throughput change = 0.0311742
0
Class 0:
Minimum packet latency = 5
Average packet latency = 27.7622
Maximum packet latency = 56
Minimum network latency = 5
Average network latency = 27.7622
Maximum network latency = 56
Slowest packet = 81734
Minimum flit latency = 5
Average flit latency = 27.7622
Maximum flit latency = 56
Slowest flit = 81734
Minimum fragmentation = 0
Average fragmentation = 0
Maximum fragmentation = 0
Minimum injected packet rate = 0.54 (at node 45)
Average injected packet rate = 0.601
Maximum injected packet rate = 0.652 (at node 121)
Minimum accepted packet rate = 0.526 (at node 90)
Average accepted packet rate = 0.601406
Maximum accepted packet rate = 0.656 (at node 41)
Minimum injected flit rate = 0.54 (at node 45)
Average injected flit rate = 0.601
Maximum injected flit rate = 0.652 (at node 121)
Minimum accepted flit rate = 0.526 (at node 90)
Average accepted flit rate = 0.601406
Maximum accepted flit rate = 0.656 (at node 41)
Average injected packet length = 1
Average accepted packet length = 1
Total in-flight flits = 2122 (0 measured)
latency change    = 0.00123351
throughput change = 0.0303326
Warmed up ...Time used is 1500 cycles
1
Class 0:
Minimum packet latency = 5
Average packet latency = 27.686
Maximum packet latency = 56
Minimum network latency = 5
Average network latency = 27.686
Maximum network latency = 56
Slowest packet = 120944
Minimum flit latency = 5
Average flit latency = 27.7776
Maximum flit latency = 56
Slowest flit = 112742
Minimum fragmentation = 0
Average fragmentation = 0
Maximum fragmentation = 0
Minimum injected packet rate = 0.536 (at node 103)
Average injected packet rate = 0.597656
Maximum injected packet rate = 0.654 (at node 13)
Minimum accepted packet rate = 0.544 (at node 39)
Average accepted packet rate = 0.597187
Maximum accepted packet rate = 0.65 (at node 17)
Minimum injected flit rate = 0.536 (at node 103)
Average injected flit rate = 0.597656
Maximum injected flit rate = 0.654 (at node 13)
Minimum accepted flit rate = 0.544 (at node 39)
Average accepted flit rate = 0.597187
Maximum accepted flit rate = 0.65 (at node 17)
Average injected packet length = 1
Average accepted packet length = 1
Total in-flight flits = 2152 (2152 measured)
latency change    = 0.00275238
throughput change = 0.00706436
1
Class 0:
Minimum packet latency = 5
Average packet latency = 27.7392
Maximum packet latency = 56
Minimum network latency = 5
Average network latency = 27.7392
Maximum network latency = 56
Slowest packet = 120944
Minimum flit latency = 5
Average flit latency = 27.7834
Maximum flit latency = 56
Slowest flit = 112742
Minimum fragmentation = 0
Average fragmentation = 0
Maximum fragmentation = 0
Minimum injected packet rate = 0.56 (at node 5)
Average injected packet rate = 0.598195
Maximum injected packet rate = 0.637 (at node 10)
Minimum accepted packet rate = 0.561 (at node 35)
Average accepted packet rate = 0.598391
Maximum accepted packet rate = 0.641 (at node 124)
Minimum injected flit rate = 0.56 (at node 5)
Average injected flit rate = 0.598195
Maximum injected flit rate = 0.637 (at node 10)
Minimum accepted flit rate = 0.561 (at node 35)
Average accepted flit rate = 0.598391
Maximum accepted flit rate = 0.641 (at node 124)
Average injected packet length = 1
Average accepted packet length = 1
Total in-flight flits = 2097 (2097 measured)
latency change    = 0.00191579
throughput change = 0.0020106
1
Class 0:
Minimum packet latency = 5
Average packet latency = 27.7276
Maximum packet latency = 57
Minimum network latency = 5
Average network latency = 27.7276
Maximum network latency = 57
Slowest packet = 215778
Minimum flit latency = 5
Average flit latency = 27.7572
Maximum flit latency = 57
Slowest flit = 215778
Minimum fragmentation = 0
Average fragmentation = 0
Maximum fragmentation = 0
Minimum injected packet rate = 0.570667 (at node 75)
Average injected packet rate = 0.59912
Maximum injected packet rate = 0.63 (at node 79)
Minimum accepted packet rate = 0.572667 (at node 105)
Average accepted packet rate = 0.599302
Maximum accepted packet rate = 0.63 (at node 121)
Minimum injected flit rate = 0.570667 (at node 75)
Average injected flit rate = 0.59912
Maximum injected flit rate = 0.63 (at node 79)
Minimum accepted flit rate = 0.572667 (at node 105)
Average accepted flit rate = 0.599302
Maximum accepted flit rate = 0.63 (at node 121)
Average injected packet length = 1
Average accepted packet length = 1
Total in-flight flits = 2087 (2087 measured)
latency change    = 0.000417064
throughput change = 0.00152087
Draining all recorded packets ...
Draining remaining packets ...
Time taken is 3093 cycles
====== Traffic class 0 ======
Overall minimum packet latency = 5 (1 samples)
Overall average packet latency = 27.7567 (1 samples)
Overall maximum packet latency = 57 (1 samples)
Overall minimum network latency = 5 (1 samples)
Overall average network latency = 27.7567 (1 samples)
Overall maximum network latency = 57 (1 samples)
Overall minimum flit latency = 5 (1 samples)
Overall average flit latency = 27.7921 (1 samples)
Overall maximum flit latency = 57 (1 samples)
Overall minimum fragmentation = 0 (1 samples)
Overall average fragmentation = 0 (1 samples)
Overall maximum fragmentation = 0 (1 samples)
Overall minimum injected packet rate = 0.570667 (1 samples)
Overall average injected packet rate = 0.59912 (1 samples)
Overall maximum injected packet rate = 0.63 (1 samples)
Overall minimum accepted packet rate = 0.572667 (1 samples)
Overall average accepted packet rate = 0.599302 (1 samples)
Overall maximum accepted packet rate = 0.63 (1 samples)
Overall minimum injected flit rate = 0.570667 (1 samples)
Overall average injected flit rate = 0.59912 (1 samples)
Overall maximum injected flit rate = 0.63 (1 samples)
Overall minimum accepted flit rate = 0.572667 (1 samples)
Overall average accepted flit rate = 0.599302 (1 samples)
Overall maximum accepted flit rate = 0.63 (1 samples)
Overall average injected packet size = 1 (1 samples)
Overall average accepted packet size = 1 (1 samples)
Overall average hops = 7.98951 (1 samples)
Total run time 48.0809
