BEGIN Configuration File: ./HC
injection_rate = 0.5;
traffic = bitrev;
routing_function = valiant;
vc_buf_size = 16;
topology = torus;
use_noc_latency = 0;
hold_switch_for_packet=0;

k = 2;
n = 7;

packet_size  = 1;
num_vcs      = 4;
vc_allocator = separable_input_first; 
sw_allocator = separable_input_first;

alloc_iters   = 1;
sample_period = 500;

wait_for_tail_credit = 0;
use_read_write       = 0;

credit_delay   = 2;
routing_delay  = 0;
vc_alloc_delay = 1;
sw_alloc_delay = 1;
st_final_delay = 1;

input_speedup     = 1;
output_speedup    = 1;
internal_speedup  = 2.0;

warmup_periods = 3;
sim_count      = 1;

priority = none;
injection_rate_uses_flits=1;

END Configuration File: ./HC
Number of nodes: 128
Number of routers: 128
0
Class 0:
Minimum packet latency = 5
Average packet latency = 27.1808
Maximum packet latency = 53
Minimum network latency = 5
Average network latency = 27.1808
Maximum network latency = 53
Slowest packet = 16148
Minimum flit latency = 5
Average flit latency = 27.1808
Maximum flit latency = 53
Slowest flit = 16148
Minimum fragmentation = 0
Average fragmentation = 0
Maximum fragmentation = 0
Minimum injected packet rate = 0.452 (at node 96)
Average injected packet rate = 0.498719
Maximum injected packet rate = 0.55 (at node 81)
Minimum accepted packet rate = 0.42 (at node 114)
Average accepted packet rate = 0.471891
Maximum accepted packet rate = 0.518 (at node 46)
Minimum injected flit rate = 0.452 (at node 96)
Average injected flit rate = 0.498719
Maximum injected flit rate = 0.55 (at node 81)
Minimum accepted flit rate = 0.42 (at node 114)
Average accepted flit rate = 0.471891
Maximum accepted flit rate = 0.518 (at node 46)
Average injected packet length = 1
Average accepted packet length = 1
Total in-flight flits = 1717 (0 measured)
latency change    = 1
throughput change = 1
0
Class 0:
Minimum packet latency = 5
Average packet latency = 27.2483
Maximum packet latency = 56
Minimum network latency = 5
Average network latency = 27.2483
Maximum network latency = 56
Slowest packet = 49239
Minimum flit latency = 5
Average flit latency = 27.2483
Maximum flit latency = 56
Slowest flit = 49239
Minimum fragmentation = 0
Average fragmentation = 0
Maximum fragmentation = 0
Minimum injected packet rate = 0.463 (at node 110)
Average injected packet rate = 0.499609
Maximum injected packet rate = 0.533 (at node 81)
Minimum accepted packet rate = 0.45 (at node 107)
Average accepted packet rate = 0.485852
Maximum accepted packet rate = 0.518 (at node 69)
Minimum injected flit rate = 0.463 (at node 110)
Average injected flit rate = 0.499609
Maximum injected flit rate = 0.533 (at node 81)
Minimum accepted flit rate = 0.45 (at node 107)
Average accepted flit rate = 0.485852
Maximum accepted flit rate = 0.518 (at node 69)
Average injected packet length = 1
Average accepted packet length = 1
Total in-flight flits = 1761 (0 measured)
latency change    = 0.00247614
throughput change = 0.028735
0
Class 0:
Minimum packet latency = 5
Average packet latency = 27.373
Maximum packet latency = 52
Minimum network latency = 5
Average network latency = 27.373
Maximum network latency = 52
Slowest packet = 75478
Minimum flit latency = 5
Average flit latency = 27.373
Maximum flit latency = 52
Slowest flit = 75478
Minimum fragmentation = 0
Average fragmentation = 0
Maximum fragmentation = 0
Minimum injected packet rate = 0.434 (at node 45)
Average injected packet rate = 0.502297
Maximum injected packet rate = 0.55 (at node 26)
Minimum accepted packet rate = 0.424 (at node 90)
Average accepted packet rate = 0.50275
Maximum accepted packet rate = 0.56 (at node 41)
Minimum injected flit rate = 0.434 (at node 45)
Average injected flit rate = 0.502297
Maximum injected flit rate = 0.55 (at node 26)
Minimum accepted flit rate = 0.424 (at node 90)
Average accepted flit rate = 0.50275
Maximum accepted flit rate = 0.56 (at node 41)
Average injected packet length = 1
Average accepted packet length = 1
Total in-flight flits = 1732 (0 measured)
latency change    = 0.00455747
throughput change = 0.033612
Warmed up ...Time used is 1500 cycles
1
Class 0:
Minimum packet latency = 5
Average packet latency = 27.1644
Maximum packet latency = 55
Minimum network latency = 5
Average network latency = 27.1644
Maximum network latency = 55
Slowest packet = 97033
Minimum flit latency = 5
Average flit latency = 27.2572
Maximum flit latency = 55
Slowest flit = 97033
Minimum fragmentation = 0
Average fragmentation = 0
Maximum fragmentation = 0
Minimum injected packet rate = 0.438 (at node 103)
Average injected packet rate = 0.498359
Maximum injected packet rate = 0.546 (at node 26)
Minimum accepted packet rate = 0.444 (at node 115)
Average accepted packet rate = 0.497891
Maximum accepted packet rate = 0.544 (at node 44)
Minimum injected flit rate = 0.438 (at node 103)
Average injected flit rate = 0.498359
Maximum injected flit rate = 0.546 (at node 26)
Minimum accepted flit rate = 0.444 (at node 115)
Average accepted flit rate = 0.497891
Maximum accepted flit rate = 0.544 (at node 44)
Average injected packet length = 1
Average accepted packet length = 1
Total in-flight flits = 1762 (1762 measured)
latency change    = 0.00768064
throughput change = 0.00975992
1
Class 0:
Minimum packet latency = 5
Average packet latency = 27.2565
Maximum packet latency = 55
Minimum network latency = 5
Average network latency = 27.2565
Maximum network latency = 55
Slowest packet = 97033
Minimum flit latency = 5
Average flit latency = 27.3003
Maximum flit latency = 55
Slowest flit = 97033
Minimum fragmentation = 0
Average fragmentation = 0
Maximum fragmentation = 0
Minimum injected packet rate = 0.46 (at node 33)
Average injected packet rate = 0.499086
Maximum injected packet rate = 0.542 (at node 14)
Minimum accepted packet rate = 0.461 (at node 66)
Average accepted packet rate = 0.499141
Maximum accepted packet rate = 0.545 (at node 124)
Minimum injected flit rate = 0.46 (at node 33)
Average injected flit rate = 0.499086
Maximum injected flit rate = 0.542 (at node 14)
Minimum accepted flit rate = 0.461 (at node 66)
Average accepted flit rate = 0.499141
Maximum accepted flit rate = 0.545 (at node 124)
Average injected packet length = 1
Average accepted packet length = 1
Total in-flight flits = 1725 (1725 measured)
latency change    = 0.00338093
throughput change = 0.0025043
1
Class 0:
Minimum packet latency = 5
Average packet latency = 27.2717
Maximum packet latency = 55
Minimum network latency = 5
Average network latency = 27.2717
Maximum network latency = 55
Slowest packet = 97033
Minimum flit latency = 5
Average flit latency = 27.3006
Maximum flit latency = 55
Slowest flit = 97033
Minimum fragmentation = 0
Average fragmentation = 0
Maximum fragmentation = 0
Minimum injected packet rate = 0.465333 (at node 33)
Average injected packet rate = 0.499531
Maximum injected packet rate = 0.536 (at node 0)
Minimum accepted packet rate = 0.464667 (at node 66)
Average accepted packet rate = 0.499526
Maximum accepted packet rate = 0.536667 (at node 0)
Minimum injected flit rate = 0.465333 (at node 33)
Average injected flit rate = 0.499531
Maximum injected flit rate = 0.536 (at node 0)
Minimum accepted flit rate = 0.464667 (at node 66)
Average accepted flit rate = 0.499526
Maximum accepted flit rate = 0.536667 (at node 0)
Average injected packet length = 1
Average accepted packet length = 1
Total in-flight flits = 1733 (1733 measured)
latency change    = 0.000558084
throughput change = 0.000771565
Draining all recorded packets ...
Draining remaining packets ...
Time taken is 3093 cycles
====== Traffic class 0 ======
Overall minimum packet latency = 5 (1 samples)
Overall average packet latency = 27.298 (1 samples)
Overall maximum packet latency = 55 (1 samples)
Overall minimum network latency = 5 (1 samples)
Overall average network latency = 27.298 (1 samples)
Overall maximum network latency = 55 (1 samples)
Overall minimum flit latency = 5 (1 samples)
Overall average flit latency = 27.3204 (1 samples)
Overall maximum flit latency = 55 (1 samples)
Overall minimum fragmentation = 0 (1 samples)
Overall average fragmentation = 0 (1 samples)
Overall maximum fragmentation = 0 (1 samples)
Overall minimum injected packet rate = 0.465333 (1 samples)
Overall average injected packet rate = 0.499531 (1 samples)
Overall maximum injected packet rate = 0.536 (1 samples)
Overall minimum accepted packet rate = 0.464667 (1 samples)
Overall average accepted packet rate = 0.499526 (1 samples)
Overall maximum accepted packet rate = 0.536667 (1 samples)
Overall minimum injected flit rate = 0.465333 (1 samples)
Overall average injected flit rate = 0.499531 (1 samples)
Overall maximum injected flit rate = 0.536 (1 samples)
Overall minimum accepted flit rate = 0.464667 (1 samples)
Overall average accepted flit rate = 0.499526 (1 samples)
Overall maximum accepted flit rate = 0.536667 (1 samples)
Overall average injected packet size = 1 (1 samples)
Overall average accepted packet size = 1 (1 samples)
Overall average hops = 7.99372 (1 samples)
Total run time 41.8059
