BEGIN Configuration File: ./HC
injection_rate = 0.2;
traffic = bitrev;
routing_function = dim_order_bal;
vc_buf_size = 16;
topology = torus;
use_noc_latency = 0;
hold_switch_for_packet=0;

k = 2;
n = 7;

packet_size  = 1;
num_vcs      = 2;
vc_allocator = separable_input_first; 
sw_allocator = separable_input_first;

alloc_iters   = 1;
sample_period = 500;

wait_for_tail_credit = 0;
use_read_write       = 0;

credit_delay   = 2;
routing_delay  = 0;
vc_alloc_delay = 1;
sw_alloc_delay = 1;
st_final_delay = 1;

input_speedup     = 1;
output_speedup    = 1;
internal_speedup  = 2.0;

warmup_periods = 3;
sim_count      = 1;

priority = none;
injection_rate_uses_flits=1;

END Configuration File: ./HC
Number of nodes: 128
Number of routers: 128
0
Class 0:
Minimum packet latency = 5
Average packet latency = 14.2117
Maximum packet latency = 31
Minimum network latency = 5
Average network latency = 14.2117
Maximum network latency = 31
Slowest packet = 417
Minimum flit latency = 5
Average flit latency = 14.2117
Maximum flit latency = 31
Slowest flit = 417
Minimum fragmentation = 0
Average fragmentation = 0
Maximum fragmentation = 0
Minimum injected packet rate = 0.15 (at node 1)
Average injected packet rate = 0.197109
Maximum injected packet rate = 0.236 (at node 20)
Minimum accepted packet rate = 0.144 (at node 64)
Average accepted packet rate = 0.19125
Maximum accepted packet rate = 0.232 (at node 20)
Minimum injected flit rate = 0.15 (at node 1)
Average injected flit rate = 0.197109
Maximum injected flit rate = 0.236 (at node 20)
Minimum accepted flit rate = 0.144 (at node 64)
Average accepted flit rate = 0.19125
Maximum accepted flit rate = 0.232 (at node 20)
Average injected packet length = 1
Average accepted packet length = 1
Total in-flight flits = 375 (0 measured)
latency change    = 1
throughput change = 1
0
Class 0:
Minimum packet latency = 5
Average packet latency = 14.3027
Maximum packet latency = 31
Minimum network latency = 5
Average network latency = 14.3027
Maximum network latency = 31
Slowest packet = 417
Minimum flit latency = 5
Average flit latency = 14.3027
Maximum flit latency = 31
Slowest flit = 417
Minimum fragmentation = 0
Average fragmentation = 0
Maximum fragmentation = 0
Minimum injected packet rate = 0.169 (at node 1)
Average injected packet rate = 0.198797
Maximum injected packet rate = 0.234 (at node 82)
Minimum accepted packet rate = 0.165 (at node 64)
Average accepted packet rate = 0.196031
Maximum accepted packet rate = 0.229 (at node 37)
Minimum injected flit rate = 0.169 (at node 1)
Average injected flit rate = 0.198797
Maximum injected flit rate = 0.234 (at node 82)
Minimum accepted flit rate = 0.165 (at node 64)
Average accepted flit rate = 0.196031
Maximum accepted flit rate = 0.229 (at node 37)
Average injected packet length = 1
Average accepted packet length = 1
Total in-flight flits = 354 (0 measured)
latency change    = 0.00636266
throughput change = 0.0243902
0
Class 0:
Minimum packet latency = 5
Average packet latency = 14.2192
Maximum packet latency = 29
Minimum network latency = 5
Average network latency = 14.2192
Maximum network latency = 29
Slowest packet = 30654
Minimum flit latency = 5
Average flit latency = 14.2192
Maximum flit latency = 29
Slowest flit = 30654
Minimum fragmentation = 0
Average fragmentation = 0
Maximum fragmentation = 0
Minimum injected packet rate = 0.152 (at node 45)
Average injected packet rate = 0.197875
Maximum injected packet rate = 0.236 (at node 12)
Minimum accepted packet rate = 0.152 (at node 90)
Average accepted packet rate = 0.198328
Maximum accepted packet rate = 0.244 (at node 122)
Minimum injected flit rate = 0.152 (at node 45)
Average injected flit rate = 0.197875
Maximum injected flit rate = 0.236 (at node 12)
Minimum accepted flit rate = 0.152 (at node 90)
Average accepted flit rate = 0.198328
Maximum accepted flit rate = 0.244 (at node 122)
Average injected packet length = 1
Average accepted packet length = 1
Total in-flight flits = 325 (0 measured)
latency change    = 0.00587307
throughput change = 0.0115812
Warmed up ...Time used is 1500 cycles
1
Class 0:
Minimum packet latency = 5
Average packet latency = 14.2162
Maximum packet latency = 31
Minimum network latency = 5
Average network latency = 14.2162
Maximum network latency = 31
Slowest packet = 42499
Minimum flit latency = 5
Average flit latency = 14.2618
Maximum flit latency = 31
Slowest flit = 42499
Minimum fragmentation = 0
Average fragmentation = 0
Maximum fragmentation = 0
Minimum injected packet rate = 0.16 (at node 103)
Average injected packet rate = 0.201156
Maximum injected packet rate = 0.252 (at node 66)
Minimum accepted packet rate = 0.16 (at node 51)
Average accepted packet rate = 0.200031
Maximum accepted packet rate = 0.248 (at node 33)
Minimum injected flit rate = 0.16 (at node 103)
Average injected flit rate = 0.201156
Maximum injected flit rate = 0.252 (at node 66)
Minimum accepted flit rate = 0.16 (at node 51)
Average accepted flit rate = 0.200031
Maximum accepted flit rate = 0.248 (at node 33)
Average injected packet length = 1
Average accepted packet length = 1
Total in-flight flits = 397 (397 measured)
latency change    = 0.000206668
throughput change = 0.00851429
1
Class 0:
Minimum packet latency = 5
Average packet latency = 14.2698
Maximum packet latency = 32
Minimum network latency = 5
Average network latency = 14.2698
Maximum network latency = 32
Slowest packet = 51141
Minimum flit latency = 5
Average flit latency = 14.2918
Maximum flit latency = 32
Slowest flit = 51141
Minimum fragmentation = 0
Average fragmentation = 0
Maximum fragmentation = 0
Minimum injected packet rate = 0.176 (at node 18)
Average injected packet rate = 0.200477
Maximum injected packet rate = 0.236 (at node 66)
Minimum accepted packet rate = 0.175 (at node 36)
Average accepted packet rate = 0.200211
Maximum accepted packet rate = 0.233 (at node 33)
Minimum injected flit rate = 0.176 (at node 18)
Average injected flit rate = 0.200477
Maximum injected flit rate = 0.236 (at node 66)
Minimum accepted flit rate = 0.175 (at node 36)
Average accepted flit rate = 0.200211
Maximum accepted flit rate = 0.233 (at node 33)
Average injected packet length = 1
Average accepted packet length = 1
Total in-flight flits = 359 (359 measured)
latency change    = 0.00375221
throughput change = 0.000897491
1
Class 0:
Minimum packet latency = 5
Average packet latency = 14.2764
Maximum packet latency = 32
Minimum network latency = 5
Average network latency = 14.2764
Maximum network latency = 32
Slowest packet = 51141
Minimum flit latency = 5
Average flit latency = 14.2911
Maximum flit latency = 32
Slowest flit = 51141
Minimum fragmentation = 0
Average fragmentation = 0
Maximum fragmentation = 0
Minimum injected packet rate = 0.176 (at node 70)
Average injected packet rate = 0.200182
Maximum injected packet rate = 0.236 (at node 101)
Minimum accepted packet rate = 0.174 (at node 49)
Average accepted packet rate = 0.200005
Maximum accepted packet rate = 0.234 (at node 83)
Minimum injected flit rate = 0.176 (at node 70)
Average injected flit rate = 0.200182
Maximum injected flit rate = 0.236 (at node 101)
Minimum accepted flit rate = 0.174 (at node 49)
Average accepted flit rate = 0.200005
Maximum accepted flit rate = 0.234 (at node 83)
Average injected packet length = 1
Average accepted packet length = 1
Total in-flight flits = 359 (359 measured)
latency change    = 0.00046325
throughput change = 0.00102862
Draining all recorded packets ...
Draining remaining packets ...
Time taken is 3051 cycles
====== Traffic class 0 ======
Overall minimum packet latency = 5 (1 samples)
Overall average packet latency = 14.3007 (1 samples)
Overall maximum packet latency = 32 (1 samples)
Overall minimum network latency = 5 (1 samples)
Overall average network latency = 14.3007 (1 samples)
Overall maximum network latency = 32 (1 samples)
Overall minimum flit latency = 5 (1 samples)
Overall average flit latency = 14.3194 (1 samples)
Overall maximum flit latency = 32 (1 samples)
Overall minimum fragmentation = 0 (1 samples)
Overall average fragmentation = 0 (1 samples)
Overall maximum fragmentation = 0 (1 samples)
Overall minimum injected packet rate = 0.176 (1 samples)
Overall average injected packet rate = 0.200182 (1 samples)
Overall maximum injected packet rate = 0.236 (1 samples)
Overall minimum accepted packet rate = 0.174 (1 samples)
Overall average accepted packet rate = 0.200005 (1 samples)
Overall maximum accepted packet rate = 0.234 (1 samples)
Overall minimum injected flit rate = 0.176 (1 samples)
Overall average injected flit rate = 0.200182 (1 samples)
Overall maximum injected flit rate = 0.236 (1 samples)
Overall minimum accepted flit rate = 0.174 (1 samples)
Overall average accepted flit rate = 0.200005 (1 samples)
Overall maximum accepted flit rate = 0.234 (1 samples)
Overall average injected packet size = 1 (1 samples)
Overall average accepted packet size = 1 (1 samples)
Overall average hops = 3.99513 (1 samples)
Total run time 12.6785
