BEGIN Configuration File: ./HC
injection_rate = 0.3;
traffic = bitrev;
routing_function = valiant;
vc_buf_size = 16;
topology = torus;
use_noc_latency = 0;
hold_switch_for_packet=0;

k = 2;
n = 7;

packet_size  = 1;
num_vcs      = 4;
vc_allocator = separable_input_first; 
sw_allocator = separable_input_first;

alloc_iters   = 1;
sample_period = 500;

wait_for_tail_credit = 0;
use_read_write       = 0;

credit_delay   = 2;
routing_delay  = 0;
vc_alloc_delay = 1;
sw_alloc_delay = 1;
st_final_delay = 1;

input_speedup     = 1;
output_speedup    = 1;
internal_speedup  = 2.0;

warmup_periods = 3;
sim_count      = 1;

priority = none;
injection_rate_uses_flits=1;

END Configuration File: ./HC
Number of nodes: 128
Number of routers: 128
0
Class 0:
Minimum packet latency = 5
Average packet latency = 26.5814
Maximum packet latency = 52
Minimum network latency = 5
Average network latency = 26.5814
Maximum network latency = 52
Slowest packet = 3840
Minimum flit latency = 5
Average flit latency = 26.5814
Maximum flit latency = 52
Slowest flit = 3840
Minimum fragmentation = 0
Average fragmentation = 0
Maximum fragmentation = 0
Minimum injected packet rate = 0.246 (at node 1)
Average injected packet rate = 0.298609
Maximum injected packet rate = 0.352 (at node 97)
Minimum accepted packet rate = 0.228 (at node 64)
Average accepted packet rate = 0.282406
Maximum accepted packet rate = 0.334 (at node 37)
Minimum injected flit rate = 0.246 (at node 1)
Average injected flit rate = 0.298609
Maximum injected flit rate = 0.352 (at node 97)
Minimum accepted flit rate = 0.228 (at node 64)
Average accepted flit rate = 0.282406
Maximum accepted flit rate = 0.334 (at node 37)
Average injected packet length = 1
Average accepted packet length = 1
Total in-flight flits = 1037 (0 measured)
latency change    = 1
throughput change = 1
0
Class 0:
Minimum packet latency = 5
Average packet latency = 26.6277
Maximum packet latency = 52
Minimum network latency = 5
Average network latency = 26.6277
Maximum network latency = 52
Slowest packet = 3840
Minimum flit latency = 5
Average flit latency = 26.6277
Maximum flit latency = 52
Slowest flit = 3840
Minimum fragmentation = 0
Average fragmentation = 0
Maximum fragmentation = 0
Minimum injected packet rate = 0.26 (at node 1)
Average injected packet rate = 0.299031
Maximum injected packet rate = 0.336 (at node 51)
Minimum accepted packet rate = 0.251 (at node 74)
Average accepted packet rate = 0.291391
Maximum accepted packet rate = 0.325 (at node 37)
Minimum injected flit rate = 0.26 (at node 1)
Average injected flit rate = 0.299031
Maximum injected flit rate = 0.336 (at node 51)
Minimum accepted flit rate = 0.251 (at node 74)
Average accepted flit rate = 0.291391
Maximum accepted flit rate = 0.325 (at node 37)
Average injected packet length = 1
Average accepted packet length = 1
Total in-flight flits = 978 (0 measured)
latency change    = 0.00173622
throughput change = 0.0308328
0
Class 0:
Minimum packet latency = 5
Average packet latency = 26.5865
Maximum packet latency = 50
Minimum network latency = 5
Average network latency = 26.5865
Maximum network latency = 50
Slowest packet = 43349
Minimum flit latency = 5
Average flit latency = 26.5865
Maximum flit latency = 50
Slowest flit = 43349
Minimum fragmentation = 0
Average fragmentation = 0
Maximum fragmentation = 0
Minimum injected packet rate = 0.248 (at node 114)
Average injected packet rate = 0.298938
Maximum injected packet rate = 0.344 (at node 12)
Minimum accepted packet rate = 0.25 (at node 39)
Average accepted packet rate = 0.299
Maximum accepted packet rate = 0.348 (at node 41)
Minimum injected flit rate = 0.248 (at node 114)
Average injected flit rate = 0.298938
Maximum injected flit rate = 0.344 (at node 12)
Minimum accepted flit rate = 0.25 (at node 39)
Average accepted flit rate = 0.299
Maximum accepted flit rate = 0.348 (at node 41)
Average injected packet length = 1
Average accepted packet length = 1
Total in-flight flits = 974 (0 measured)
latency change    = 0.00154922
throughput change = 0.0254494
Warmed up ...Time used is 1500 cycles
1
Class 0:
Minimum packet latency = 5
Average packet latency = 26.6146
Maximum packet latency = 52
Minimum network latency = 5
Average network latency = 26.6146
Maximum network latency = 52
Slowest packet = 63274
Minimum flit latency = 5
Average flit latency = 26.6681
Maximum flit latency = 52
Slowest flit = 63274
Minimum fragmentation = 0
Average fragmentation = 0
Maximum fragmentation = 0
Minimum injected packet rate = 0.248 (at node 108)
Average injected packet rate = 0.299172
Maximum injected packet rate = 0.356 (at node 106)
Minimum accepted packet rate = 0.252 (at node 27)
Average accepted packet rate = 0.298063
Maximum accepted packet rate = 0.356 (at node 33)
Minimum injected flit rate = 0.248 (at node 108)
Average injected flit rate = 0.299172
Maximum injected flit rate = 0.356 (at node 106)
Minimum accepted flit rate = 0.252 (at node 27)
Average accepted flit rate = 0.298063
Maximum accepted flit rate = 0.356 (at node 33)
Average injected packet length = 1
Average accepted packet length = 1
Total in-flight flits = 1045 (1045 measured)
latency change    = 0.00105532
throughput change = 0.00314531
1
Class 0:
Minimum packet latency = 5
Average packet latency = 26.62
Maximum packet latency = 52
Minimum network latency = 5
Average network latency = 26.62
Maximum network latency = 52
Slowest packet = 63274
Minimum flit latency = 5
Average flit latency = 26.6466
Maximum flit latency = 52
Slowest flit = 63274
Minimum fragmentation = 0
Average fragmentation = 0
Maximum fragmentation = 0
Minimum injected packet rate = 0.259 (at node 18)
Average injected packet rate = 0.298391
Maximum injected packet rate = 0.336 (at node 34)
Minimum accepted packet rate = 0.262 (at node 36)
Average accepted packet rate = 0.298391
Maximum accepted packet rate = 0.335 (at node 34)
Minimum injected flit rate = 0.259 (at node 18)
Average injected flit rate = 0.298391
Maximum injected flit rate = 0.336 (at node 34)
Minimum accepted flit rate = 0.262 (at node 36)
Average accepted flit rate = 0.298391
Maximum accepted flit rate = 0.335 (at node 34)
Average injected packet length = 1
Average accepted packet length = 1
Total in-flight flits = 974 (974 measured)
latency change    = 0.000204476
throughput change = 0.00109965
1
Class 0:
Minimum packet latency = 5
Average packet latency = 26.6129
Maximum packet latency = 52
Minimum network latency = 5
Average network latency = 26.6129
Maximum network latency = 52
Slowest packet = 63274
Minimum flit latency = 5
Average flit latency = 26.6308
Maximum flit latency = 52
Slowest flit = 63274
Minimum fragmentation = 0
Average fragmentation = 0
Maximum fragmentation = 0
Minimum injected packet rate = 0.271333 (at node 47)
Average injected packet rate = 0.298568
Maximum injected packet rate = 0.328667 (at node 101)
Minimum accepted packet rate = 0.268667 (at node 122)
Average accepted packet rate = 0.298484
Maximum accepted packet rate = 0.326 (at node 116)
Minimum injected flit rate = 0.271333 (at node 47)
Average injected flit rate = 0.298568
Maximum injected flit rate = 0.328667 (at node 101)
Minimum accepted flit rate = 0.268667 (at node 122)
Average accepted flit rate = 0.298484
Maximum accepted flit rate = 0.326 (at node 116)
Average injected packet length = 1
Average accepted packet length = 1
Total in-flight flits = 990 (990 measured)
latency change    = 0.000266541
throughput change = 0.000314087
Draining all recorded packets ...
Draining remaining packets ...
Time taken is 3090 cycles
====== Traffic class 0 ======
Overall minimum packet latency = 5 (1 samples)
Overall average packet latency = 26.633 (1 samples)
Overall maximum packet latency = 52 (1 samples)
Overall minimum network latency = 5 (1 samples)
Overall average network latency = 26.633 (1 samples)
Overall maximum network latency = 52 (1 samples)
Overall minimum flit latency = 5 (1 samples)
Overall average flit latency = 26.6451 (1 samples)
Overall maximum flit latency = 52 (1 samples)
Overall minimum fragmentation = 0 (1 samples)
Overall average fragmentation = 0 (1 samples)
Overall maximum fragmentation = 0 (1 samples)
Overall minimum injected packet rate = 0.271333 (1 samples)
Overall average injected packet rate = 0.298568 (1 samples)
Overall maximum injected packet rate = 0.328667 (1 samples)
Overall minimum accepted packet rate = 0.268667 (1 samples)
Overall average accepted packet rate = 0.298484 (1 samples)
Overall maximum accepted packet rate = 0.326 (1 samples)
Overall minimum injected flit rate = 0.271333 (1 samples)
Overall average injected flit rate = 0.298568 (1 samples)
Overall maximum injected flit rate = 0.328667 (1 samples)
Overall minimum accepted flit rate = 0.268667 (1 samples)
Overall average accepted flit rate = 0.298484 (1 samples)
Overall maximum accepted flit rate = 0.326 (1 samples)
Overall average injected packet size = 1 (1 samples)
Overall average accepted packet size = 1 (1 samples)
Overall average hops = 7.99845 (1 samples)
Total run time 28.1487
