BEGIN Configuration File: ./HC
injection_rate = 0.7;
traffic = bitrev;
routing_function = valiant;
vc_buf_size = 16;
topology = torus;
use_noc_latency = 0;
hold_switch_for_packet=0;

k = 2;
n = 7;

packet_size  = 1;
num_vcs      = 4;
vc_allocator = separable_input_first; 
sw_allocator = separable_input_first;

alloc_iters   = 1;
sample_period = 500;

wait_for_tail_credit = 0;
use_read_write       = 0;

credit_delay   = 2;
routing_delay  = 0;
vc_alloc_delay = 1;
sw_alloc_delay = 1;
st_final_delay = 1;

input_speedup     = 1;
output_speedup    = 1;
internal_speedup  = 2.0;

warmup_periods = 3;
sim_count      = 1;

priority = none;
injection_rate_uses_flits=1;

END Configuration File: ./HC
Number of nodes: 128
Number of routers: 128
0
Class 0:
Minimum packet latency = 5
Average packet latency = 28.2967
Maximum packet latency = 57
Minimum network latency = 5
Average network latency = 28.2967
Maximum network latency = 57
Slowest packet = 24755
Minimum flit latency = 5
Average flit latency = 28.2967
Maximum flit latency = 57
Slowest flit = 24755
Minimum fragmentation = 0
Average fragmentation = 0
Maximum fragmentation = 0
Minimum injected packet rate = 0.644 (at node 126)
Average injected packet rate = 0.699375
Maximum injected packet rate = 0.75 (at node 82)
Minimum accepted packet rate = 0.618 (at node 29)
Average accepted packet rate = 0.659281
Maximum accepted packet rate = 0.704 (at node 37)
Minimum injected flit rate = 0.644 (at node 126)
Average injected flit rate = 0.699375
Maximum injected flit rate = 0.75 (at node 82)
Minimum accepted flit rate = 0.618 (at node 29)
Average accepted flit rate = 0.659281
Maximum accepted flit rate = 0.704 (at node 37)
Average injected packet length = 1
Average accepted packet length = 1
Total in-flight flits = 2566 (0 measured)
latency change    = 1
throughput change = 1
0
Class 0:
Minimum packet latency = 5
Average packet latency = 28.3656
Maximum packet latency = 57
Minimum network latency = 5
Average network latency = 28.3656
Maximum network latency = 57
Slowest packet = 24755
Minimum flit latency = 5
Average flit latency = 28.3656
Maximum flit latency = 57
Slowest flit = 24755
Minimum fragmentation = 0
Average fragmentation = 0
Maximum fragmentation = 0
Minimum injected packet rate = 0.664 (at node 110)
Average injected packet rate = 0.699727
Maximum injected packet rate = 0.742 (at node 70)
Minimum accepted packet rate = 0.641 (at node 59)
Average accepted packet rate = 0.679867
Maximum accepted packet rate = 0.72 (at node 49)
Minimum injected flit rate = 0.664 (at node 110)
Average injected flit rate = 0.699727
Maximum injected flit rate = 0.742 (at node 70)
Minimum accepted flit rate = 0.641 (at node 59)
Average accepted flit rate = 0.679867
Maximum accepted flit rate = 0.72 (at node 49)
Average injected packet length = 1
Average accepted packet length = 1
Total in-flight flits = 2542 (0 measured)
latency change    = 0.00242831
throughput change = 0.0302794
0
Class 0:
Minimum packet latency = 5
Average packet latency = 28.4477
Maximum packet latency = 56
Minimum network latency = 5
Average network latency = 28.4477
Maximum network latency = 56
Slowest packet = 107621
Minimum flit latency = 5
Average flit latency = 28.4477
Maximum flit latency = 56
Slowest flit = 107621
Minimum fragmentation = 0
Average fragmentation = 0
Maximum fragmentation = 0
Minimum injected packet rate = 0.648 (at node 118)
Average injected packet rate = 0.700531
Maximum injected packet rate = 0.77 (at node 59)
Minimum accepted packet rate = 0.656 (at node 55)
Average accepted packet rate = 0.699766
Maximum accepted packet rate = 0.764 (at node 110)
Minimum injected flit rate = 0.648 (at node 118)
Average injected flit rate = 0.700531
Maximum injected flit rate = 0.77 (at node 59)
Minimum accepted flit rate = 0.656 (at node 55)
Average accepted flit rate = 0.699766
Maximum accepted flit rate = 0.764 (at node 110)
Average injected packet length = 1
Average accepted packet length = 1
Total in-flight flits = 2591 (0 measured)
latency change    = 0.00288802
throughput change = 0.0284359
Warmed up ...Time used is 1500 cycles
1
Class 0:
Minimum packet latency = 5
Average packet latency = 28.2947
Maximum packet latency = 59
Minimum network latency = 5
Average network latency = 28.2947
Maximum network latency = 59
Slowest packet = 145569
Minimum flit latency = 5
Average flit latency = 28.3994
Maximum flit latency = 59
Slowest flit = 145569
Minimum fragmentation = 0
Average fragmentation = 0
Maximum fragmentation = 0
Minimum injected packet rate = 0.658 (at node 22)
Average injected packet rate = 0.697266
Maximum injected packet rate = 0.756 (at node 13)
Minimum accepted packet rate = 0.638 (at node 39)
Average accepted packet rate = 0.697781
Maximum accepted packet rate = 0.756 (at node 17)
Minimum injected flit rate = 0.658 (at node 22)
Average injected flit rate = 0.697266
Maximum injected flit rate = 0.756 (at node 13)
Minimum accepted flit rate = 0.638 (at node 39)
Average accepted flit rate = 0.697781
Maximum accepted flit rate = 0.756 (at node 17)
Average injected packet length = 1
Average accepted packet length = 1
Total in-flight flits = 2558 (2558 measured)
latency change    = 0.00540973
throughput change = 0.00284384
1
Class 0:
Minimum packet latency = 5
Average packet latency = 28.3591
Maximum packet latency = 60
Minimum network latency = 5
Average network latency = 28.3591
Maximum network latency = 60
Slowest packet = 215843
Minimum flit latency = 5
Average flit latency = 28.4096
Maximum flit latency = 60
Slowest flit = 215843
Minimum fragmentation = 0
Average fragmentation = 0
Maximum fragmentation = 0
Minimum injected packet rate = 0.658 (at node 22)
Average injected packet rate = 0.697937
Maximum injected packet rate = 0.739 (at node 14)
Minimum accepted packet rate = 0.663 (at node 68)
Average accepted packet rate = 0.698688
Maximum accepted packet rate = 0.732 (at node 56)
Minimum injected flit rate = 0.658 (at node 22)
Average injected flit rate = 0.697937
Maximum injected flit rate = 0.739 (at node 14)
Minimum accepted flit rate = 0.663 (at node 68)
Average accepted flit rate = 0.698688
Maximum accepted flit rate = 0.732 (at node 56)
Average injected packet length = 1
Average accepted packet length = 1
Total in-flight flits = 2495 (2495 measured)
latency change    = 0.00227321
throughput change = 0.00129707
1
Class 0:
Minimum packet latency = 5
Average packet latency = 28.3733
Maximum packet latency = 60
Minimum network latency = 5
Average network latency = 28.3733
Maximum network latency = 60
Slowest packet = 215843
Minimum flit latency = 5
Average flit latency = 28.4066
Maximum flit latency = 60
Slowest flit = 215843
Minimum fragmentation = 0
Average fragmentation = 0
Maximum fragmentation = 0
Minimum injected packet rate = 0.668 (at node 43)
Average injected packet rate = 0.69851
Maximum injected packet rate = 0.726667 (at node 101)
Minimum accepted packet rate = 0.666667 (at node 106)
Average accepted packet rate = 0.698901
Maximum accepted packet rate = 0.725333 (at node 5)
Minimum injected flit rate = 0.668 (at node 43)
Average injected flit rate = 0.69851
Maximum injected flit rate = 0.726667 (at node 101)
Minimum accepted flit rate = 0.666667 (at node 106)
Average accepted flit rate = 0.698901
Maximum accepted flit rate = 0.725333 (at node 5)
Average injected packet length = 1
Average accepted packet length = 1
Total in-flight flits = 2516 (2516 measured)
latency change    = 0.000497878
throughput change = 0.000305539
Draining all recorded packets ...
Draining remaining packets ...
Time taken is 3098 cycles
====== Traffic class 0 ======
Overall minimum packet latency = 5 (1 samples)
Overall average packet latency = 28.4058 (1 samples)
Overall maximum packet latency = 60 (1 samples)
Overall minimum network latency = 5 (1 samples)
Overall average network latency = 28.4058 (1 samples)
Overall maximum network latency = 60 (1 samples)
Overall minimum flit latency = 5 (1 samples)
Overall average flit latency = 28.4281 (1 samples)
Overall maximum flit latency = 60 (1 samples)
Overall minimum fragmentation = 0 (1 samples)
Overall average fragmentation = 0 (1 samples)
Overall maximum fragmentation = 0 (1 samples)
Overall minimum injected packet rate = 0.668 (1 samples)
Overall average injected packet rate = 0.69851 (1 samples)
Overall maximum injected packet rate = 0.726667 (1 samples)
Overall minimum accepted packet rate = 0.666667 (1 samples)
Overall average accepted packet rate = 0.698901 (1 samples)
Overall maximum accepted packet rate = 0.725333 (1 samples)
Overall minimum injected flit rate = 0.668 (1 samples)
Overall average injected flit rate = 0.69851 (1 samples)
Overall maximum injected flit rate = 0.726667 (1 samples)
Overall minimum accepted flit rate = 0.666667 (1 samples)
Overall average accepted flit rate = 0.698901 (1 samples)
Overall maximum accepted flit rate = 0.725333 (1 samples)
Overall average injected packet size = 1 (1 samples)
Overall average accepted packet size = 1 (1 samples)
Overall average hops = 8.00758 (1 samples)
Total run time 54.0031
