BEGIN Configuration File: ./HC
injection_rate = 0.01;
traffic = bitrev;
routing_function = dim_order;
vc_buf_size = 16;
topology = torus;
use_noc_latency = 0;
hold_switch_for_packet=0;

k = 2;
n = 7;

packet_size  = 1;
num_vcs      = 2;
vc_allocator = separable_input_first; 
sw_allocator = separable_input_first;

alloc_iters   = 1;
sample_period = 500;

wait_for_tail_credit = 0;
use_read_write       = 0;

credit_delay   = 2;
routing_delay  = 0;
vc_alloc_delay = 1;
sw_alloc_delay = 1;
st_final_delay = 1;

input_speedup     = 1;
output_speedup    = 1;
internal_speedup  = 2.0;

warmup_periods = 3;
sim_count      = 1;

priority = none;
injection_rate_uses_flits=1;

END Configuration File: ./HC
Number of nodes: 128
Number of routers: 128
0
Class 0:
Minimum packet latency = 5
Average packet latency = 14.052
Maximum packet latency = 24
Minimum network latency = 5
Average network latency = 14.052
Maximum network latency = 24
Slowest packet = 44
Minimum flit latency = 5
Average flit latency = 14.052
Maximum flit latency = 24
Slowest flit = 44
Minimum fragmentation = 0
Average fragmentation = 0
Maximum fragmentation = 0
Minimum injected packet rate = 0 (at node 21)
Average injected packet rate = 0.00960937
Maximum injected packet rate = 0.022 (at node 102)
Minimum accepted packet rate = 0 (at node 84)
Average accepted packet rate = 0.0093125
Maximum accepted packet rate = 0.022 (at node 51)
Minimum injected flit rate = 0 (at node 21)
Average injected flit rate = 0.00960937
Maximum injected flit rate = 0.022 (at node 102)
Minimum accepted flit rate = 0 (at node 84)
Average accepted flit rate = 0.0093125
Maximum accepted flit rate = 0.022 (at node 51)
Average injected packet length = 1
Average accepted packet length = 1
Total in-flight flits = 19 (0 measured)
latency change    = 1
throughput change = 1
0
Class 0:
Minimum packet latency = 5
Average packet latency = 14.1262
Maximum packet latency = 24
Minimum network latency = 5
Average network latency = 14.1262
Maximum network latency = 24
Slowest packet = 44
Minimum flit latency = 5
Average flit latency = 14.1262
Maximum flit latency = 24
Slowest flit = 44
Minimum fragmentation = 0
Average fragmentation = 0
Maximum fragmentation = 0
Minimum injected packet rate = 0.003 (at node 38)
Average injected packet rate = 0.00977344
Maximum injected packet rate = 0.018 (at node 60)
Minimum accepted packet rate = 0.003 (at node 39)
Average accepted packet rate = 0.00959375
Maximum accepted packet rate = 0.018 (at node 30)
Minimum injected flit rate = 0.003 (at node 38)
Average injected flit rate = 0.00977344
Maximum injected flit rate = 0.018 (at node 60)
Minimum accepted flit rate = 0.003 (at node 39)
Average accepted flit rate = 0.00959375
Maximum accepted flit rate = 0.018 (at node 30)
Average injected packet length = 1
Average accepted packet length = 1
Total in-flight flits = 23 (0 measured)
latency change    = 0.00525321
throughput change = 0.029316
0
Class 0:
Minimum packet latency = 5
Average packet latency = 13.8343
Maximum packet latency = 23
Minimum network latency = 5
Average network latency = 13.8343
Maximum network latency = 23
Slowest packet = 1221
Minimum flit latency = 5
Average flit latency = 13.8343
Maximum flit latency = 23
Slowest flit = 1221
Minimum fragmentation = 0
Average fragmentation = 0
Maximum fragmentation = 0
Minimum injected packet rate = 0.002 (at node 22)
Average injected packet rate = 0.0103281
Maximum injected packet rate = 0.024 (at node 65)
Minimum accepted packet rate = 0.002 (at node 3)
Average accepted packet rate = 0.010375
Maximum accepted packet rate = 0.024 (at node 65)
Minimum injected flit rate = 0.002 (at node 22)
Average injected flit rate = 0.0103281
Maximum injected flit rate = 0.024 (at node 65)
Minimum accepted flit rate = 0.002 (at node 3)
Average accepted flit rate = 0.010375
Maximum accepted flit rate = 0.024 (at node 65)
Average injected packet length = 1
Average accepted packet length = 1
Total in-flight flits = 20 (0 measured)
latency change    = 0.0210985
throughput change = 0.0753012
Warmed up ...Time used is 1500 cycles
1
Class 0:
Minimum packet latency = 5
Average packet latency = 13.704
Maximum packet latency = 24
Minimum network latency = 5
Average network latency = 13.704
Maximum network latency = 24
Slowest packet = 1979
Minimum flit latency = 5
Average flit latency = 13.7411
Maximum flit latency = 24
Slowest flit = 1979
Minimum fragmentation = 0
Average fragmentation = 0
Maximum fragmentation = 0
Minimum injected packet rate = 0.002 (at node 61)
Average injected packet rate = 0.0100469
Maximum injected packet rate = 0.022 (at node 85)
Minimum accepted packet rate = 0.002 (at node 27)
Average accepted packet rate = 0.0100781
Maximum accepted packet rate = 0.022 (at node 83)
Minimum injected flit rate = 0.002 (at node 61)
Average injected flit rate = 0.0100469
Maximum injected flit rate = 0.022 (at node 85)
Minimum accepted flit rate = 0.002 (at node 27)
Average accepted flit rate = 0.0100781
Maximum accepted flit rate = 0.022 (at node 83)
Average injected packet length = 1
Average accepted packet length = 1
Total in-flight flits = 18 (18 measured)
latency change    = 0.0095109
throughput change = 0.0294574
1
Class 0:
Minimum packet latency = 5
Average packet latency = 13.7547
Maximum packet latency = 24
Minimum network latency = 5
Average network latency = 13.7547
Maximum network latency = 24
Slowest packet = 1979
Minimum flit latency = 5
Average flit latency = 13.7729
Maximum flit latency = 24
Slowest flit = 1979
Minimum fragmentation = 0
Average fragmentation = 0
Maximum fragmentation = 0
Minimum injected packet rate = 0.003 (at node 27)
Average injected packet rate = 0.00976562
Maximum injected packet rate = 0.018 (at node 107)
Minimum accepted packet rate = 0.003 (at node 108)
Average accepted packet rate = 0.00980469
Maximum accepted packet rate = 0.018 (at node 91)
Minimum injected flit rate = 0.003 (at node 27)
Average injected flit rate = 0.00976562
Maximum injected flit rate = 0.018 (at node 107)
Minimum accepted flit rate = 0.003 (at node 108)
Average accepted flit rate = 0.00980469
Maximum accepted flit rate = 0.018 (at node 91)
Average injected packet length = 1
Average accepted packet length = 1
Total in-flight flits = 15 (15 measured)
latency change    = 0.00368282
throughput change = 0.0278884
1
Class 0:
Minimum packet latency = 5
Average packet latency = 13.8232
Maximum packet latency = 24
Minimum network latency = 5
Average network latency = 13.8232
Maximum network latency = 24
Slowest packet = 1979
Minimum flit latency = 5
Average flit latency = 13.8348
Maximum flit latency = 24
Slowest flit = 1979
Minimum fragmentation = 0
Average fragmentation = 0
Maximum fragmentation = 0
Minimum injected packet rate = 0.00333333 (at node 94)
Average injected packet rate = 0.00970833
Maximum injected packet rate = 0.0153333 (at node 36)
Minimum accepted packet rate = 0.00333333 (at node 61)
Average accepted packet rate = 0.00970833
Maximum accepted packet rate = 0.0146667 (at node 18)
Minimum injected flit rate = 0.00333333 (at node 94)
Average injected flit rate = 0.00970833
Maximum injected flit rate = 0.0153333 (at node 36)
Minimum accepted flit rate = 0.00333333 (at node 61)
Average accepted flit rate = 0.00970833
Maximum accepted flit rate = 0.0146667 (at node 18)
Average injected packet length = 1
Average accepted packet length = 1
Total in-flight flits = 20 (20 measured)
latency change    = 0.00495938
throughput change = 0.00992489
Draining all recorded packets ...
Draining remaining packets ...
Time taken is 3045 cycles
====== Traffic class 0 ======
Overall minimum packet latency = 5 (1 samples)
Overall average packet latency = 13.8605 (1 samples)
Overall maximum packet latency = 24 (1 samples)
Overall minimum network latency = 5 (1 samples)
Overall average network latency = 13.8605 (1 samples)
Overall maximum network latency = 24 (1 samples)
Overall minimum flit latency = 5 (1 samples)
Overall average flit latency = 13.8954 (1 samples)
Overall maximum flit latency = 24 (1 samples)
Overall minimum fragmentation = 0 (1 samples)
Overall average fragmentation = 0 (1 samples)
Overall maximum fragmentation = 0 (1 samples)
Overall minimum injected packet rate = 0.00333333 (1 samples)
Overall average injected packet rate = 0.00970833 (1 samples)
Overall maximum injected packet rate = 0.0153333 (1 samples)
Overall minimum accepted packet rate = 0.00333333 (1 samples)
Overall average accepted packet rate = 0.00970833 (1 samples)
Overall maximum accepted packet rate = 0.0146667 (1 samples)
Overall minimum injected flit rate = 0.00333333 (1 samples)
Overall average injected flit rate = 0.00970833 (1 samples)
Overall maximum injected flit rate = 0.0153333 (1 samples)
Overall minimum accepted flit rate = 0.00333333 (1 samples)
Overall average accepted flit rate = 0.00970833 (1 samples)
Overall maximum accepted flit rate = 0.0146667 (1 samples)
Overall average injected packet size = 1 (1 samples)
Overall average accepted packet size = 1 (1 samples)
Overall average hops = 3.95172 (1 samples)
Total run time 4.30732
