BEGIN Configuration File: ./HC
injection_rate = 0.1;
traffic = bitrev;
routing_function = chaos;
vc_buf_size = 16;
topology = torus;
use_noc_latency = 0;
hold_switch_for_packet=0;

k = 2;
n = 7;

packet_size  = 1;
num_vcs      = 3;
vc_allocator = separable_input_first; 
sw_allocator = separable_input_first;

alloc_iters   = 1;
sample_period = 500;

wait_for_tail_credit = 0;
use_read_write       = 0;

credit_delay   = 2;
routing_delay  = 0;
vc_alloc_delay = 1;
sw_alloc_delay = 1;
st_final_delay = 1;

input_speedup     = 1;
output_speedup    = 1;
internal_speedup  = 2.0;

warmup_periods = 3;
sim_count      = 1;

priority = none;
injection_rate_uses_flits=1;

END Configuration File: ./HC
Number of nodes: 128
Number of routers: 128
0
Class 0:
Minimum packet latency = 5
Average packet latency = 14.0563
Maximum packet latency = 27
Minimum network latency = 5
Average network latency = 14.0563
Maximum network latency = 27
Slowest packet = 1187
Minimum flit latency = 5
Average flit latency = 14.0563
Maximum flit latency = 27
Slowest flit = 1187
Minimum fragmentation = 0
Average fragmentation = 0
Maximum fragmentation = 0
Minimum injected packet rate = 0.066 (at node 91)
Average injected packet rate = 0.098125
Maximum injected packet rate = 0.132 (at node 22)
Minimum accepted packet rate = 0.058 (at node 109)
Average accepted packet rate = 0.0951094
Maximum accepted packet rate = 0.126 (at node 52)
Minimum injected flit rate = 0.066 (at node 91)
Average injected flit rate = 0.098125
Maximum injected flit rate = 0.132 (at node 22)
Minimum accepted flit rate = 0.058 (at node 109)
Average accepted flit rate = 0.0951094
Maximum accepted flit rate = 0.126 (at node 52)
Average injected packet length = 1
Average accepted packet length = 1
Total in-flight flits = 193 (0 measured)
latency change    = 1
throughput change = 1
0
Class 0:
Minimum packet latency = 5
Average packet latency = 14.1712
Maximum packet latency = 27
Minimum network latency = 5
Average network latency = 14.1712
Maximum network latency = 27
Slowest packet = 1187
Minimum flit latency = 5
Average flit latency = 14.1712
Maximum flit latency = 27
Slowest flit = 1187
Minimum fragmentation = 0
Average fragmentation = 0
Maximum fragmentation = 0
Minimum injected packet rate = 0.078 (at node 91)
Average injected packet rate = 0.0990625
Maximum injected packet rate = 0.121 (at node 32)
Minimum accepted packet rate = 0.076 (at node 109)
Average accepted packet rate = 0.0977031
Maximum accepted packet rate = 0.119 (at node 2)
Minimum injected flit rate = 0.078 (at node 91)
Average injected flit rate = 0.0990625
Maximum injected flit rate = 0.121 (at node 32)
Minimum accepted flit rate = 0.076 (at node 109)
Average accepted flit rate = 0.0977031
Maximum accepted flit rate = 0.119 (at node 2)
Average injected packet length = 1
Average accepted packet length = 1
Total in-flight flits = 174 (0 measured)
latency change    = 0.00810434
throughput change = 0.0265473
0
Class 0:
Minimum packet latency = 5
Average packet latency = 13.9898
Maximum packet latency = 29
Minimum network latency = 5
Average network latency = 13.9898
Maximum network latency = 29
Slowest packet = 12359
Minimum flit latency = 5
Average flit latency = 13.9898
Maximum flit latency = 29
Slowest flit = 12359
Minimum fragmentation = 0
Average fragmentation = 0
Maximum fragmentation = 0
Minimum injected packet rate = 0.07 (at node 102)
Average injected packet rate = 0.098125
Maximum injected packet rate = 0.136 (at node 6)
Minimum accepted packet rate = 0.068 (at node 39)
Average accepted packet rate = 0.098125
Maximum accepted packet rate = 0.136 (at node 48)
Minimum injected flit rate = 0.07 (at node 102)
Average injected flit rate = 0.098125
Maximum injected flit rate = 0.136 (at node 6)
Minimum accepted flit rate = 0.068 (at node 39)
Average accepted flit rate = 0.098125
Maximum accepted flit rate = 0.136 (at node 48)
Average injected packet length = 1
Average accepted packet length = 1
Total in-flight flits = 174 (0 measured)
latency change    = 0.0129658
throughput change = 0.00429936
Warmed up ...Time used is 1500 cycles
1
Class 0:
Minimum packet latency = 5
Average packet latency = 14.0642
Maximum packet latency = 26
Minimum network latency = 5
Average network latency = 14.0642
Maximum network latency = 26
Slowest packet = 19340
Minimum flit latency = 5
Average flit latency = 14.1092
Maximum flit latency = 26
Slowest flit = 19340
Minimum fragmentation = 0
Average fragmentation = 0
Maximum fragmentation = 0
Minimum injected packet rate = 0.066 (at node 17)
Average injected packet rate = 0.100375
Maximum injected packet rate = 0.134 (at node 22)
Minimum accepted packet rate = 0.062 (at node 51)
Average accepted packet rate = 0.100047
Maximum accepted packet rate = 0.134 (at node 44)
Minimum injected flit rate = 0.066 (at node 17)
Average injected flit rate = 0.100375
Maximum injected flit rate = 0.134 (at node 22)
Minimum accepted flit rate = 0.062 (at node 51)
Average accepted flit rate = 0.100047
Maximum accepted flit rate = 0.134 (at node 44)
Average injected packet length = 1
Average accepted packet length = 1
Total in-flight flits = 195 (195 measured)
latency change    = 0.00529051
throughput change = 0.0192097
1
Class 0:
Minimum packet latency = 5
Average packet latency = 14.0848
Maximum packet latency = 27
Minimum network latency = 5
Average network latency = 14.0848
Maximum network latency = 27
Slowest packet = 26586
Minimum flit latency = 5
Average flit latency = 14.107
Maximum flit latency = 27
Slowest flit = 26586
Minimum fragmentation = 0
Average fragmentation = 0
Maximum fragmentation = 0
Minimum injected packet rate = 0.074 (at node 116)
Average injected packet rate = 0.0998437
Maximum injected packet rate = 0.132 (at node 66)
Minimum accepted packet rate = 0.074 (at node 23)
Average accepted packet rate = 0.0998594
Maximum accepted packet rate = 0.129 (at node 33)
Minimum injected flit rate = 0.074 (at node 116)
Average injected flit rate = 0.0998437
Maximum injected flit rate = 0.132 (at node 66)
Minimum accepted flit rate = 0.074 (at node 23)
Average accepted flit rate = 0.0998594
Maximum accepted flit rate = 0.129 (at node 33)
Average injected packet length = 1
Average accepted packet length = 1
Total in-flight flits = 172 (172 measured)
latency change    = 0.00146056
throughput change = 0.00187764
1
Class 0:
Minimum packet latency = 5
Average packet latency = 14.0953
Maximum packet latency = 27
Minimum network latency = 5
Average network latency = 14.0953
Maximum network latency = 27
Slowest packet = 26586
Minimum flit latency = 5
Average flit latency = 14.11
Maximum flit latency = 27
Slowest flit = 26586
Minimum fragmentation = 0
Average fragmentation = 0
Maximum fragmentation = 0
Minimum injected packet rate = 0.0793333 (at node 116)
Average injected packet rate = 0.099849
Maximum injected packet rate = 0.123333 (at node 21)
Minimum accepted packet rate = 0.0793333 (at node 23)
Average accepted packet rate = 0.0997917
Maximum accepted packet rate = 0.124 (at node 84)
Minimum injected flit rate = 0.0793333 (at node 116)
Average injected flit rate = 0.099849
Maximum injected flit rate = 0.123333 (at node 21)
Minimum accepted flit rate = 0.0793333 (at node 23)
Average accepted flit rate = 0.0997917
Maximum accepted flit rate = 0.124 (at node 84)
Average injected packet length = 1
Average accepted packet length = 1
Total in-flight flits = 185 (185 measured)
latency change    = 0.000744455
throughput change = 0.000678497
Draining all recorded packets ...
Draining remaining packets ...
Time taken is 3051 cycles
====== Traffic class 0 ======
Overall minimum packet latency = 5 (1 samples)
Overall average packet latency = 14.1218 (1 samples)
Overall maximum packet latency = 27 (1 samples)
Overall minimum network latency = 5 (1 samples)
Overall average network latency = 14.1218 (1 samples)
Overall maximum network latency = 27 (1 samples)
Overall minimum flit latency = 5 (1 samples)
Overall average flit latency = 14.1328 (1 samples)
Overall maximum flit latency = 27 (1 samples)
Overall minimum fragmentation = 0 (1 samples)
Overall average fragmentation = 0 (1 samples)
Overall maximum fragmentation = 0 (1 samples)
Overall minimum injected packet rate = 0.0793333 (1 samples)
Overall average injected packet rate = 0.099849 (1 samples)
Overall maximum injected packet rate = 0.123333 (1 samples)
Overall minimum accepted packet rate = 0.0793333 (1 samples)
Overall average accepted packet rate = 0.0997917 (1 samples)
Overall maximum accepted packet rate = 0.124 (1 samples)
Overall minimum injected flit rate = 0.0793333 (1 samples)
Overall average injected flit rate = 0.099849 (1 samples)
Overall maximum injected flit rate = 0.123333 (1 samples)
Overall minimum accepted flit rate = 0.0793333 (1 samples)
Overall average accepted flit rate = 0.0997917 (1 samples)
Overall maximum accepted flit rate = 0.124 (1 samples)
Overall average injected packet size = 1 (1 samples)
Overall average accepted packet size = 1 (1 samples)
Overall average hops = 3.99296 (1 samples)
Total run time 9.85939
