BEGIN Configuration File: ./FBF-3.conf
injection_rate = 0.01;
traffic = uniform;
routing_function = ran_min;
vc_buf_size = 16;
topology = flatfly;
use_noc_latency = 0;
hold_switch_for_packet=1;

c = 9;
k = 2;
n = 3;

x  = 4;
y  = 4;
xr = 3;
yr = 3;

packet_size  = 1;
num_vcs      = 2;
vc_allocator = separable_input_first; 
sw_allocator = separable_input_first;

alloc_iters   = 1;
sample_period = 500;

wait_for_tail_credit = 0;
use_read_write       = 0;

credit_delay   = 2;
routing_delay  = 0;
vc_alloc_delay = 1;
sw_alloc_delay = 1;
st_final_delay = 1;

input_speedup     = 1;
output_speedup    = 1;
internal_speedup  = 2.0;

warmup_periods = 3;
sim_count      = 1;

priority = none;
injection_rate_uses_flits=1;

END Configuration File: ./FBF-3.conf
Number of nodes: 72
Number of routers: 8
 Flat Bufferfly 
 k = 2 n = 3 c = 9
 each switch - total radix =  12
 # of switches = 8
 # of channels = 24
 # of nodes ( size of network ) = 72
0
Class 0:
Minimum packet latency = 5
Average packet latency = 9.4806
Maximum packet latency = 15
Minimum network latency = 5
Average network latency = 9.4806
Maximum network latency = 15
Slowest packet = 41
Minimum flit latency = 5
Average flit latency = 9.4806
Maximum flit latency = 15
Slowest flit = 41
Minimum fragmentation = 0
Average fragmentation = 0
Maximum fragmentation = 0
Minimum injected packet rate = 0.002 (at node 52)
Average injected packet rate = 0.0095
Maximum injected packet rate = 0.02 (at node 24)
Minimum accepted packet rate = 0 (at node 19)
Average accepted packet rate = 0.00930556
Maximum accepted packet rate = 0.018 (at node 2)
Minimum injected flit rate = 0.002 (at node 52)
Average injected flit rate = 0.0095
Maximum injected flit rate = 0.02 (at node 24)
Minimum accepted flit rate = 0 (at node 19)
Average accepted flit rate = 0.00930556
Maximum accepted flit rate = 0.018 (at node 2)
Average injected packet length = 1
Average accepted packet length = 1
Total in-flight flits = 7 (0 measured)
latency change    = 1
throughput change = 1
0
Class 0:
Minimum packet latency = 5
Average packet latency = 9.45401
Maximum packet latency = 15
Minimum network latency = 5
Average network latency = 9.45401
Maximum network latency = 15
Slowest packet = 41
Minimum flit latency = 5
Average flit latency = 9.45401
Maximum flit latency = 15
Slowest flit = 41
Minimum fragmentation = 0
Average fragmentation = 0
Maximum fragmentation = 0
Minimum injected packet rate = 0.004 (at node 30)
Average injected packet rate = 0.00958333
Maximum injected packet rate = 0.016 (at node 14)
Minimum accepted packet rate = 0.003 (at node 16)
Average accepted packet rate = 0.00951389
Maximum accepted packet rate = 0.017 (at node 25)
Minimum injected flit rate = 0.004 (at node 30)
Average injected flit rate = 0.00958333
Maximum injected flit rate = 0.016 (at node 14)
Minimum accepted flit rate = 0.003 (at node 16)
Average accepted flit rate = 0.00951389
Maximum accepted flit rate = 0.017 (at node 25)
Average injected packet length = 1
Average accepted packet length = 1
Total in-flight flits = 5 (0 measured)
latency change    = 0.00281176
throughput change = 0.0218978
0
Class 0:
Minimum packet latency = 5
Average packet latency = 9.40113
Maximum packet latency = 15
Minimum network latency = 5
Average network latency = 9.40113
Maximum network latency = 15
Slowest packet = 1026
Minimum flit latency = 5
Average flit latency = 9.40113
Maximum flit latency = 15
Slowest flit = 1026
Minimum fragmentation = 0
Average fragmentation = 0
Maximum fragmentation = 0
Minimum injected packet rate = 0 (at node 17)
Average injected packet rate = 0.00983333
Maximum injected packet rate = 0.02 (at node 19)
Minimum accepted packet rate = 0 (at node 70)
Average accepted packet rate = 0.00983333
Maximum accepted packet rate = 0.026 (at node 7)
Minimum injected flit rate = 0 (at node 17)
Average injected flit rate = 0.00983333
Maximum injected flit rate = 0.02 (at node 19)
Minimum accepted flit rate = 0 (at node 70)
Average accepted flit rate = 0.00983333
Maximum accepted flit rate = 0.026 (at node 7)
Average injected packet length = 1
Average accepted packet length = 1
Total in-flight flits = 5 (0 measured)
latency change    = 0.00562535
throughput change = 0.0324859
Warmed up ...Time used is 1500 cycles
1
Class 0:
Minimum packet latency = 5
Average packet latency = 9.39386
Maximum packet latency = 15
Minimum network latency = 5
Average network latency = 9.39386
Maximum network latency = 15
Slowest packet = 1060
Minimum flit latency = 5
Average flit latency = 9.41414
Maximum flit latency = 15
Slowest flit = 1060
Minimum fragmentation = 0
Average fragmentation = 0
Maximum fragmentation = 0
Minimum injected packet rate = 0.002 (at node 51)
Average injected packet rate = 0.0110278
Maximum injected packet rate = 0.026 (at node 9)
Minimum accepted packet rate = 0 (at node 65)
Average accepted packet rate = 0.011
Maximum accepted packet rate = 0.022 (at node 23)
Minimum injected flit rate = 0.002 (at node 51)
Average injected flit rate = 0.0110278
Maximum injected flit rate = 0.026 (at node 9)
Minimum accepted flit rate = 0 (at node 65)
Average accepted flit rate = 0.011
Maximum accepted flit rate = 0.022 (at node 23)
Average injected packet length = 1
Average accepted packet length = 1
Total in-flight flits = 6 (6 measured)
latency change    = 0.000773702
throughput change = 0.106061
1
Class 0:
Minimum packet latency = 5
Average packet latency = 9.44505
Maximum packet latency = 15
Minimum network latency = 5
Average network latency = 9.44505
Maximum network latency = 15
Slowest packet = 1060
Minimum flit latency = 5
Average flit latency = 9.45553
Maximum flit latency = 15
Slowest flit = 1060
Minimum fragmentation = 0
Average fragmentation = 0
Maximum fragmentation = 0
Minimum injected packet rate = 0.004 (at node 53)
Average injected packet rate = 0.0103472
Maximum injected packet rate = 0.019 (at node 1)
Minimum accepted packet rate = 0.002 (at node 57)
Average accepted packet rate = 0.0103056
Maximum accepted packet rate = 0.019 (at node 69)
Minimum injected flit rate = 0.004 (at node 53)
Average injected flit rate = 0.0103472
Maximum injected flit rate = 0.019 (at node 1)
Minimum accepted flit rate = 0.002 (at node 57)
Average accepted flit rate = 0.0103056
Maximum accepted flit rate = 0.019 (at node 69)
Average injected packet length = 1
Average accepted packet length = 1
Total in-flight flits = 8 (8 measured)
latency change    = 0.00541931
throughput change = 0.0673854
1
Class 0:
Minimum packet latency = 5
Average packet latency = 9.5914
Maximum packet latency = 15
Minimum network latency = 5
Average network latency = 9.5914
Maximum network latency = 15
Slowest packet = 1060
Minimum flit latency = 5
Average flit latency = 9.59768
Maximum flit latency = 15
Slowest flit = 1060
Minimum fragmentation = 0
Average fragmentation = 0
Maximum fragmentation = 0
Minimum injected packet rate = 0.004 (at node 51)
Average injected packet rate = 0.0103981
Maximum injected packet rate = 0.0193333 (at node 1)
Minimum accepted packet rate = 0.004 (at node 6)
Average accepted packet rate = 0.0103796
Maximum accepted packet rate = 0.016 (at node 0)
Minimum injected flit rate = 0.004 (at node 51)
Average injected flit rate = 0.0103981
Maximum injected flit rate = 0.0193333 (at node 1)
Minimum accepted flit rate = 0.004 (at node 6)
Average accepted flit rate = 0.0103796
Maximum accepted flit rate = 0.016 (at node 0)
Average injected packet length = 1
Average accepted packet length = 1
Total in-flight flits = 7 (7 measured)
latency change    = 0.0152585
throughput change = 0.00713649
1
Class 0:
Minimum packet latency = 5
Average packet latency = 9.53984
Maximum packet latency = 15
Minimum network latency = 5
Average network latency = 9.53984
Maximum network latency = 15
Slowest packet = 1060
Minimum flit latency = 5
Average flit latency = 9.54483
Maximum flit latency = 15
Slowest flit = 1060
Minimum fragmentation = 0
Average fragmentation = 0
Maximum fragmentation = 0
Minimum injected packet rate = 0.005 (at node 51)
Average injected packet rate = 0.0101736
Maximum injected packet rate = 0.0185 (at node 1)
Minimum accepted packet rate = 0.005 (at node 57)
Average accepted packet rate = 0.0101458
Maximum accepted packet rate = 0.0145 (at node 0)
Minimum injected flit rate = 0.005 (at node 51)
Average injected flit rate = 0.0101736
Maximum injected flit rate = 0.0185 (at node 1)
Minimum accepted flit rate = 0.005 (at node 57)
Average accepted flit rate = 0.0101458
Maximum accepted flit rate = 0.0145 (at node 0)
Average injected packet length = 1
Average accepted packet length = 1
Total in-flight flits = 9 (9 measured)
latency change    = 0.00540499
throughput change = 0.0230436
1
Class 0:
Minimum packet latency = 5
Average packet latency = 9.55838
Maximum packet latency = 15
Minimum network latency = 5
Average network latency = 9.55838
Maximum network latency = 15
Slowest packet = 1060
Minimum flit latency = 5
Average flit latency = 9.56236
Maximum flit latency = 15
Slowest flit = 1060
Minimum fragmentation = 0
Average fragmentation = 0
Maximum fragmentation = 0
Minimum injected packet rate = 0.006 (at node 22)
Average injected packet rate = 0.0100722
Maximum injected packet rate = 0.0188 (at node 1)
Minimum accepted packet rate = 0.0056 (at node 6)
Average accepted packet rate = 0.0100667
Maximum accepted packet rate = 0.0148 (at node 69)
Minimum injected flit rate = 0.006 (at node 22)
Average injected flit rate = 0.0100722
Maximum injected flit rate = 0.0188 (at node 1)
Minimum accepted flit rate = 0.0056 (at node 6)
Average accepted flit rate = 0.0100667
Maximum accepted flit rate = 0.0148 (at node 69)
Average injected packet length = 1
Average accepted packet length = 1
Total in-flight flits = 6 (6 measured)
latency change    = 0.00194059
throughput change = 0.00786424
Draining all recorded packets ...
Draining remaining packets ...
Time taken is 4026 cycles
====== Traffic class 0 ======
Overall minimum packet latency = 5 (1 samples)
Overall average packet latency = 9.55819 (1 samples)
Overall maximum packet latency = 15 (1 samples)
Overall minimum network latency = 5 (1 samples)
Overall average network latency = 9.55819 (1 samples)
Overall maximum network latency = 15 (1 samples)
Overall minimum flit latency = 5 (1 samples)
Overall average flit latency = 9.56831 (1 samples)
Overall maximum flit latency = 15 (1 samples)
Overall minimum fragmentation = 0 (1 samples)
Overall average fragmentation = 0 (1 samples)
Overall maximum fragmentation = 0 (1 samples)
Overall minimum injected packet rate = 0.006 (1 samples)
Overall average injected packet rate = 0.0100722 (1 samples)
Overall maximum injected packet rate = 0.0188 (1 samples)
Overall minimum accepted packet rate = 0.0056 (1 samples)
Overall average accepted packet rate = 0.0100667 (1 samples)
Overall maximum accepted packet rate = 0.0148 (1 samples)
Overall minimum injected flit rate = 0.006 (1 samples)
Overall average injected flit rate = 0.0100722 (1 samples)
Overall maximum injected flit rate = 0.0188 (1 samples)
Overall minimum accepted flit rate = 0.0056 (1 samples)
Overall average accepted flit rate = 0.0100667 (1 samples)
Overall maximum accepted flit rate = 0.0148 (1 samples)
Overall average injected packet size = 1 (1 samples)
Overall average accepted packet size = 1 (1 samples)
Overall average hops = 2.50524 (1 samples)
Total run time 0.388657
