BEGIN Configuration File: ./FBF-3.conf
injection_rate = 0.01;
traffic = uniform;
routing_function = ran_min;
vc_buf_size = 16;
topology = flatfly;
use_noc_latency = 0;
hold_switch_for_packet=1;

c = 4;
k = 4;
n = 3;

x  = 4;
y  = 4;
xr = 2;
yr = 2;

packet_size  = 1;
num_vcs      = 2;
vc_allocator = separable_input_first; 
sw_allocator = separable_input_first;

alloc_iters   = 1;
sample_period = 500;

wait_for_tail_credit = 0;
use_read_write       = 0;

credit_delay   = 2;
routing_delay  = 0;
vc_alloc_delay = 1;
sw_alloc_delay = 1;
st_final_delay = 1;

input_speedup     = 1;
output_speedup    = 1;
internal_speedup  = 2.0;

warmup_periods = 3;
sim_count      = 1;

priority = none;
injection_rate_uses_flits=1;

END Configuration File: ./FBF-3.conf
Number of nodes: 256
Number of routers: 64
 Flat Bufferfly 
 k = 4 n = 3 c = 4
 each switch - total radix =  13
 # of switches = 64
 # of channels = 576
 # of nodes ( size of network ) = 256
0
Class 0:
Minimum packet latency = 5
Average packet latency = 11.662
Maximum packet latency = 15
Minimum network latency = 5
Average network latency = 11.662
Maximum network latency = 15
Slowest packet = 76
Minimum flit latency = 5
Average flit latency = 11.662
Maximum flit latency = 15
Slowest flit = 76
Minimum fragmentation = 0
Average fragmentation = 0
Maximum fragmentation = 0
Minimum injected packet rate = 0 (at node 166)
Average injected packet rate = 0.00977344
Maximum injected packet rate = 0.024 (at node 35)
Minimum accepted packet rate = 0 (at node 61)
Average accepted packet rate = 0.00952344
Maximum accepted packet rate = 0.02 (at node 91)
Minimum injected flit rate = 0 (at node 166)
Average injected flit rate = 0.00977344
Maximum injected flit rate = 0.024 (at node 35)
Minimum accepted flit rate = 0 (at node 61)
Average accepted flit rate = 0.00952344
Maximum accepted flit rate = 0.02 (at node 91)
Average injected packet length = 1
Average accepted packet length = 1
Total in-flight flits = 32 (0 measured)
latency change    = 1
throughput change = 1
0
Class 0:
Minimum packet latency = 5
Average packet latency = 11.6971
Maximum packet latency = 15
Minimum network latency = 5
Average network latency = 11.6971
Maximum network latency = 15
Slowest packet = 76
Minimum flit latency = 5
Average flit latency = 11.6971
Maximum flit latency = 15
Slowest flit = 76
Minimum fragmentation = 0
Average fragmentation = 0
Maximum fragmentation = 0
Minimum injected packet rate = 0.003 (at node 30)
Average injected packet rate = 0.00998047
Maximum injected packet rate = 0.022 (at node 170)
Minimum accepted packet rate = 0 (at node 179)
Average accepted packet rate = 0.00985156
Maximum accepted packet rate = 0.017 (at node 65)
Minimum injected flit rate = 0.003 (at node 30)
Average injected flit rate = 0.00998047
Maximum injected flit rate = 0.022 (at node 170)
Minimum accepted flit rate = 0 (at node 179)
Average accepted flit rate = 0.00985156
Maximum accepted flit rate = 0.017 (at node 65)
Average injected packet length = 1
Average accepted packet length = 1
Total in-flight flits = 33 (0 measured)
latency change    = 0.00299629
throughput change = 0.0333069
0
Class 0:
Minimum packet latency = 5
Average packet latency = 11.7361
Maximum packet latency = 15
Minimum network latency = 5
Average network latency = 11.7361
Maximum network latency = 15
Slowest packet = 2737
Minimum flit latency = 5
Average flit latency = 11.7361
Maximum flit latency = 15
Slowest flit = 2737
Minimum fragmentation = 0
Average fragmentation = 0
Maximum fragmentation = 0
Minimum injected packet rate = 0 (at node 94)
Average injected packet rate = 0.00953906
Maximum injected packet rate = 0.02 (at node 10)
Minimum accepted packet rate = 0 (at node 1)
Average accepted packet rate = 0.0095625
Maximum accepted packet rate = 0.022 (at node 172)
Minimum injected flit rate = 0 (at node 94)
Average injected flit rate = 0.00953906
Maximum injected flit rate = 0.02 (at node 10)
Minimum accepted flit rate = 0 (at node 1)
Average accepted flit rate = 0.0095625
Maximum accepted flit rate = 0.022 (at node 172)
Average injected packet length = 1
Average accepted packet length = 1
Total in-flight flits = 30 (0 measured)
latency change    = 0.00332694
throughput change = 0.0302288
Warmed up ...Time used is 1500 cycles
1
Class 0:
Minimum packet latency = 5
Average packet latency = 11.7126
Maximum packet latency = 15
Minimum network latency = 5
Average network latency = 11.7126
Maximum network latency = 15
Slowest packet = 3982
Minimum flit latency = 5
Average flit latency = 11.72
Maximum flit latency = 15
Slowest flit = 3747
Minimum fragmentation = 0
Average fragmentation = 0
Maximum fragmentation = 0
Minimum injected packet rate = 0 (at node 12)
Average injected packet rate = 0.0101563
Maximum injected packet rate = 0.024 (at node 9)
Minimum accepted packet rate = 0 (at node 212)
Average accepted packet rate = 0.0101016
Maximum accepted packet rate = 0.024 (at node 115)
Minimum injected flit rate = 0 (at node 12)
Average injected flit rate = 0.0101563
Maximum injected flit rate = 0.024 (at node 9)
Minimum accepted flit rate = 0 (at node 212)
Average accepted flit rate = 0.0101016
Maximum accepted flit rate = 0.024 (at node 115)
Average injected packet length = 1
Average accepted packet length = 1
Total in-flight flits = 37 (37 measured)
latency change    = 0.00200827
throughput change = 0.0533643
1
Class 0:
Minimum packet latency = 5
Average packet latency = 11.7531
Maximum packet latency = 15
Minimum network latency = 5
Average network latency = 11.7531
Maximum network latency = 15
Slowest packet = 3982
Minimum flit latency = 5
Average flit latency = 11.7564
Maximum flit latency = 15
Slowest flit = 3747
Minimum fragmentation = 0
Average fragmentation = 0
Maximum fragmentation = 0
Minimum injected packet rate = 0.003 (at node 6)
Average injected packet rate = 0.00992578
Maximum injected packet rate = 0.02 (at node 136)
Minimum accepted packet rate = 0.001 (at node 10)
Average accepted packet rate = 0.00991016
Maximum accepted packet rate = 0.021 (at node 142)
Minimum injected flit rate = 0.003 (at node 6)
Average injected flit rate = 0.00992578
Maximum injected flit rate = 0.02 (at node 136)
Minimum accepted flit rate = 0.001 (at node 10)
Average accepted flit rate = 0.00991016
Maximum accepted flit rate = 0.021 (at node 142)
Average injected packet length = 1
Average accepted packet length = 1
Total in-flight flits = 34 (34 measured)
latency change    = 0.0034461
throughput change = 0.0193142
1
Class 0:
Minimum packet latency = 5
Average packet latency = 11.7398
Maximum packet latency = 15
Minimum network latency = 5
Average network latency = 11.7398
Maximum network latency = 15
Slowest packet = 3982
Minimum flit latency = 5
Average flit latency = 11.7421
Maximum flit latency = 15
Slowest flit = 3747
Minimum fragmentation = 0
Average fragmentation = 0
Maximum fragmentation = 0
Minimum injected packet rate = 0.004 (at node 27)
Average injected packet rate = 0.0100938
Maximum injected packet rate = 0.018 (at node 136)
Minimum accepted packet rate = 0.00333333 (at node 10)
Average accepted packet rate = 0.0100781
Maximum accepted packet rate = 0.018 (at node 9)
Minimum injected flit rate = 0.004 (at node 27)
Average injected flit rate = 0.0100938
Maximum injected flit rate = 0.018 (at node 136)
Minimum accepted flit rate = 0.00333333 (at node 10)
Average accepted flit rate = 0.0100781
Maximum accepted flit rate = 0.018 (at node 9)
Average injected packet length = 1
Average accepted packet length = 1
Total in-flight flits = 36 (36 measured)
latency change    = 0.00112843
throughput change = 0.0166667
1
Class 0:
Minimum packet latency = 5
Average packet latency = 11.7457
Maximum packet latency = 15
Minimum network latency = 5
Average network latency = 11.7457
Maximum network latency = 15
Slowest packet = 3982
Minimum flit latency = 5
Average flit latency = 11.7474
Maximum flit latency = 15
Slowest flit = 3747
Minimum fragmentation = 0
Average fragmentation = 0
Maximum fragmentation = 0
Minimum injected packet rate = 0.0045 (at node 144)
Average injected packet rate = 0.0100254
Maximum injected packet rate = 0.016 (at node 136)
Minimum accepted packet rate = 0.004 (at node 10)
Average accepted packet rate = 0.0100293
Maximum accepted packet rate = 0.018 (at node 151)
Minimum injected flit rate = 0.0045 (at node 144)
Average injected flit rate = 0.0100254
Maximum injected flit rate = 0.016 (at node 136)
Minimum accepted flit rate = 0.004 (at node 10)
Average accepted flit rate = 0.0100293
Maximum accepted flit rate = 0.018 (at node 151)
Average injected packet length = 1
Average accepted packet length = 1
Total in-flight flits = 28 (28 measured)
latency change    = 0.000501946
throughput change = 0.00486855
Draining all recorded packets ...
Draining remaining packets ...
Time taken is 3530 cycles
====== Traffic class 0 ======
Overall minimum packet latency = 5 (1 samples)
Overall average packet latency = 11.7458 (1 samples)
Overall maximum packet latency = 15 (1 samples)
Overall minimum network latency = 5 (1 samples)
Overall average network latency = 11.7458 (1 samples)
Overall maximum network latency = 15 (1 samples)
Overall minimum flit latency = 5 (1 samples)
Overall average flit latency = 11.7441 (1 samples)
Overall maximum flit latency = 15 (1 samples)
Overall minimum fragmentation = 0 (1 samples)
Overall average fragmentation = 0 (1 samples)
Overall maximum fragmentation = 0 (1 samples)
Overall minimum injected packet rate = 0.0045 (1 samples)
Overall average injected packet rate = 0.0100254 (1 samples)
Overall maximum injected packet rate = 0.016 (1 samples)
Overall minimum accepted packet rate = 0.004 (1 samples)
Overall average accepted packet rate = 0.0100293 (1 samples)
Overall maximum accepted packet rate = 0.018 (1 samples)
Overall minimum injected flit rate = 0.0045 (1 samples)
Overall average injected flit rate = 0.0100254 (1 samples)
Overall maximum injected flit rate = 0.016 (1 samples)
Overall minimum accepted flit rate = 0.004 (1 samples)
Overall average accepted flit rate = 0.0100293 (1 samples)
Overall maximum accepted flit rate = 0.018 (1 samples)
Overall average injected packet size = 1 (1 samples)
Overall average accepted packet size = 1 (1 samples)
Overall average hops = 3.2445 (1 samples)
Total run time 2.00755
