BEGIN Configuration File: ./FBF-3.conf
injection_rate = 0.1;
traffic = uniform;
routing_function = ugal;
vc_buf_size = 16;
topology = flatfly;
use_noc_latency = 0;
hold_switch_for_packet=0;

c = 4;
k = 8;
n = 2;

x  = 8;
y  = 8;
xr = 2;
yr = 2;

packet_size  = 1;
num_vcs      = 2;
vc_allocator = separable_input_first; 
sw_allocator = separable_input_first;

alloc_iters   = 1;
sample_period = 500;

wait_for_tail_credit = 0;
use_read_write       = 0;

credit_delay   = 2;
routing_delay  = 0;
vc_alloc_delay = 1;
sw_alloc_delay = 1;
st_final_delay = 1;

input_speedup     = 1;
output_speedup    = 1;
internal_speedup  = 2.0;

warmup_periods = 3;
sim_count      = 1;

priority = none;
injection_rate_uses_flits=1;

END Configuration File: ./FBF-3.conf
Number of nodes: 256
Number of routers: 64
 Flat Bufferfly 
 k = 8 n = 2 c = 4
 each switch - total radix =  18
 # of switches = 64
 # of channels = 896
 # of nodes ( size of network ) = 256
0
Class 0:
Minimum packet latency = 5
Average packet latency = 10.4449
Maximum packet latency = 20
Minimum network latency = 5
Average network latency = 10.4449
Maximum network latency = 20
Slowest packet = 7720
Minimum flit latency = 5
Average flit latency = 10.4449
Maximum flit latency = 20
Slowest flit = 7720
Minimum fragmentation = 0
Average fragmentation = 0
Maximum fragmentation = 0
Minimum injected packet rate = 0.066 (at node 9)
Average injected packet rate = 0.0990625
Maximum injected packet rate = 0.142 (at node 220)
Minimum accepted packet rate = 0.058 (at node 229)
Average accepted packet rate = 0.0971328
Maximum accepted packet rate = 0.132 (at node 155)
Minimum injected flit rate = 0.066 (at node 9)
Average injected flit rate = 0.0990625
Maximum injected flit rate = 0.142 (at node 220)
Minimum accepted flit rate = 0.058 (at node 229)
Average accepted flit rate = 0.0971328
Maximum accepted flit rate = 0.132 (at node 155)
Average injected packet length = 1
Average accepted packet length = 1
Total in-flight flits = 247 (0 measured)
latency change    = 1
throughput change = 1
0
Class 0:
Minimum packet latency = 5
Average packet latency = 10.4353
Maximum packet latency = 20
Minimum network latency = 5
Average network latency = 10.4353
Maximum network latency = 20
Slowest packet = 7720
Minimum flit latency = 5
Average flit latency = 10.4353
Maximum flit latency = 20
Slowest flit = 7720
Minimum fragmentation = 0
Average fragmentation = 0
Maximum fragmentation = 0
Minimum injected packet rate = 0.072 (at node 166)
Average injected packet rate = 0.0991563
Maximum injected packet rate = 0.13 (at node 22)
Minimum accepted packet rate = 0.073 (at node 229)
Average accepted packet rate = 0.0980625
Maximum accepted packet rate = 0.123 (at node 73)
Minimum injected flit rate = 0.072 (at node 166)
Average injected flit rate = 0.0991563
Maximum injected flit rate = 0.13 (at node 22)
Minimum accepted flit rate = 0.073 (at node 229)
Average accepted flit rate = 0.0980625
Maximum accepted flit rate = 0.123 (at node 73)
Average injected packet length = 1
Average accepted packet length = 1
Total in-flight flits = 280 (0 measured)
latency change    = 0.000919563
throughput change = 0.00948056
0
Class 0:
Minimum packet latency = 5
Average packet latency = 10.432
Maximum packet latency = 19
Minimum network latency = 5
Average network latency = 10.432
Maximum network latency = 19
Slowest packet = 26968
Minimum flit latency = 5
Average flit latency = 10.432
Maximum flit latency = 19
Slowest flit = 26968
Minimum fragmentation = 0
Average fragmentation = 0
Maximum fragmentation = 0
Minimum injected packet rate = 0.064 (at node 15)
Average injected packet rate = 0.0995859
Maximum injected packet rate = 0.142 (at node 21)
Minimum accepted packet rate = 0.06 (at node 65)
Average accepted packet rate = 0.0996406
Maximum accepted packet rate = 0.14 (at node 37)
Minimum injected flit rate = 0.064 (at node 15)
Average injected flit rate = 0.0995859
Maximum injected flit rate = 0.142 (at node 21)
Minimum accepted flit rate = 0.06 (at node 65)
Average accepted flit rate = 0.0996406
Maximum accepted flit rate = 0.14 (at node 37)
Average injected packet length = 1
Average accepted packet length = 1
Total in-flight flits = 273 (0 measured)
latency change    = 0.000318981
throughput change = 0.0158382
Warmed up ...Time used is 1500 cycles
1
Class 0:
Minimum packet latency = 5
Average packet latency = 10.4359
Maximum packet latency = 19
Minimum network latency = 5
Average network latency = 10.4359
Maximum network latency = 19
Slowest packet = 42016
Minimum flit latency = 5
Average flit latency = 10.4431
Maximum flit latency = 19
Slowest flit = 42016
Minimum fragmentation = 0
Average fragmentation = 0
Maximum fragmentation = 0
Minimum injected packet rate = 0.058 (at node 40)
Average injected packet rate = 0.0990859
Maximum injected packet rate = 0.15 (at node 87)
Minimum accepted packet rate = 0.066 (at node 129)
Average accepted packet rate = 0.0991797
Maximum accepted packet rate = 0.14 (at node 88)
Minimum injected flit rate = 0.058 (at node 40)
Average injected flit rate = 0.0990859
Maximum injected flit rate = 0.15 (at node 87)
Minimum accepted flit rate = 0.066 (at node 129)
Average accepted flit rate = 0.0991797
Maximum accepted flit rate = 0.14 (at node 88)
Average injected packet length = 1
Average accepted packet length = 1
Total in-flight flits = 261 (261 measured)
latency change    = 0.000373596
throughput change = 0.0046475
1
Class 0:
Minimum packet latency = 5
Average packet latency = 10.44
Maximum packet latency = 19
Minimum network latency = 5
Average network latency = 10.44
Maximum network latency = 19
Slowest packet = 42016
Minimum flit latency = 5
Average flit latency = 10.4435
Maximum flit latency = 19
Slowest flit = 42016
Minimum fragmentation = 0
Average fragmentation = 0
Maximum fragmentation = 0
Minimum injected packet rate = 0.072 (at node 39)
Average injected packet rate = 0.0996875
Maximum injected packet rate = 0.132 (at node 87)
Minimum accepted packet rate = 0.072 (at node 51)
Average accepted packet rate = 0.0996602
Maximum accepted packet rate = 0.125 (at node 215)
Minimum injected flit rate = 0.072 (at node 39)
Average injected flit rate = 0.0996875
Maximum injected flit rate = 0.132 (at node 87)
Minimum accepted flit rate = 0.072 (at node 51)
Average accepted flit rate = 0.0996602
Maximum accepted flit rate = 0.125 (at node 215)
Average injected packet length = 1
Average accepted packet length = 1
Total in-flight flits = 280 (280 measured)
latency change    = 0.000392308
throughput change = 0.00482107
1
Class 0:
Minimum packet latency = 5
Average packet latency = 10.4556
Maximum packet latency = 19
Minimum network latency = 5
Average network latency = 10.4556
Maximum network latency = 19
Slowest packet = 42016
Minimum flit latency = 5
Average flit latency = 10.4579
Maximum flit latency = 19
Slowest flit = 42016
Minimum fragmentation = 0
Average fragmentation = 0
Maximum fragmentation = 0
Minimum injected packet rate = 0.078 (at node 39)
Average injected packet rate = 0.100076
Maximum injected packet rate = 0.128667 (at node 87)
Minimum accepted packet rate = 0.0753333 (at node 51)
Average accepted packet rate = 0.100073
Maximum accepted packet rate = 0.124667 (at node 181)
Minimum injected flit rate = 0.078 (at node 39)
Average injected flit rate = 0.100076
Maximum injected flit rate = 0.128667 (at node 87)
Minimum accepted flit rate = 0.0753333 (at node 51)
Average accepted flit rate = 0.100073
Maximum accepted flit rate = 0.124667 (at node 181)
Average injected packet length = 1
Average accepted packet length = 1
Total in-flight flits = 274 (274 measured)
latency change    = 0.00149447
throughput change = 0.0041246
Draining all recorded packets ...
Draining remaining packets ...
Time taken is 3037 cycles
====== Traffic class 0 ======
Overall minimum packet latency = 5 (1 samples)
Overall average packet latency = 10.4585 (1 samples)
Overall maximum packet latency = 19 (1 samples)
Overall minimum network latency = 5 (1 samples)
Overall average network latency = 10.4585 (1 samples)
Overall maximum network latency = 19 (1 samples)
Overall minimum flit latency = 5 (1 samples)
Overall average flit latency = 10.4602 (1 samples)
Overall maximum flit latency = 19 (1 samples)
Overall minimum fragmentation = 0 (1 samples)
Overall average fragmentation = 0 (1 samples)
Overall maximum fragmentation = 0 (1 samples)
Overall minimum injected packet rate = 0.078 (1 samples)
Overall average injected packet rate = 0.100076 (1 samples)
Overall maximum injected packet rate = 0.128667 (1 samples)
Overall minimum accepted packet rate = 0.0753333 (1 samples)
Overall average accepted packet rate = 0.100073 (1 samples)
Overall maximum accepted packet rate = 0.124667 (1 samples)
Overall minimum injected flit rate = 0.078 (1 samples)
Overall average injected flit rate = 0.100076 (1 samples)
Overall maximum injected flit rate = 0.128667 (1 samples)
Overall minimum accepted flit rate = 0.0753333 (1 samples)
Overall average accepted flit rate = 0.100073 (1 samples)
Overall maximum accepted flit rate = 0.124667 (1 samples)
Overall average injected packet size = 1 (1 samples)
Overall average accepted packet size = 1 (1 samples)
Overall average hops = 2.78948 (1 samples)
Total run time 3.71538
