BEGIN Configuration File: ./FBF-3.conf
injection_rate = 0.3;
traffic = bitrev;
routing_function = valiant;
vc_buf_size = 16;
topology = flatfly;
use_noc_latency = 0;
hold_switch_for_packet=0;

c = 4;
k = 8;
n = 2;

x  = 8;
y  = 8;
xr = 2;
yr = 2;

packet_size  = 1;
num_vcs      = 2;
vc_allocator = separable_input_first; 
sw_allocator = separable_input_first;

alloc_iters   = 1;
sample_period = 500;

wait_for_tail_credit = 0;
use_read_write       = 0;

credit_delay   = 2;
routing_delay  = 0;
vc_alloc_delay = 1;
sw_alloc_delay = 1;
st_final_delay = 1;

input_speedup     = 1;
output_speedup    = 1;
internal_speedup  = 2.0;

warmup_periods = 3;
sim_count      = 1;

priority = none;
injection_rate_uses_flits=1;

END Configuration File: ./FBF-3.conf
Number of nodes: 256
Number of routers: 64
 Flat Bufferfly 
 k = 8 n = 2 c = 4
 each switch - total radix =  18
 # of switches = 64
 # of channels = 896
 # of nodes ( size of network ) = 256
0
Class 0:
Minimum packet latency = 5
Average packet latency = 15.4828
Maximum packet latency = 26
Minimum network latency = 5
Average network latency = 15.4828
Maximum network latency = 26
Slowest packet = 24908
Minimum flit latency = 5
Average flit latency = 15.4828
Maximum flit latency = 26
Slowest flit = 24908
Minimum fragmentation = 0
Average fragmentation = 0
Maximum fragmentation = 0
Minimum injected packet rate = 0.238 (at node 172)
Average injected packet rate = 0.299031
Maximum injected packet rate = 0.348 (at node 22)
Minimum accepted packet rate = 0.236 (at node 53)
Average accepted packet rate = 0.289883
Maximum accepted packet rate = 0.344 (at node 247)
Minimum injected flit rate = 0.238 (at node 172)
Average injected flit rate = 0.299031
Maximum injected flit rate = 0.348 (at node 22)
Minimum accepted flit rate = 0.236 (at node 53)
Average accepted flit rate = 0.289883
Maximum accepted flit rate = 0.344 (at node 247)
Average injected packet length = 1
Average accepted packet length = 1
Total in-flight flits = 1171 (0 measured)
latency change    = 1
throughput change = 1
0
Class 0:
Minimum packet latency = 5
Average packet latency = 15.4871
Maximum packet latency = 26
Minimum network latency = 5
Average network latency = 15.4871
Maximum network latency = 26
Slowest packet = 24908
Minimum flit latency = 5
Average flit latency = 15.4871
Maximum flit latency = 26
Slowest flit = 24908
Minimum fragmentation = 0
Average fragmentation = 0
Maximum fragmentation = 0
Minimum injected packet rate = 0.262 (at node 203)
Average injected packet rate = 0.299043
Maximum injected packet rate = 0.337 (at node 223)
Minimum accepted packet rate = 0.257 (at node 22)
Average accepted packet rate = 0.294152
Maximum accepted packet rate = 0.334 (at node 251)
Minimum injected flit rate = 0.262 (at node 203)
Average injected flit rate = 0.299043
Maximum injected flit rate = 0.337 (at node 223)
Minimum accepted flit rate = 0.257 (at node 22)
Average accepted flit rate = 0.294152
Maximum accepted flit rate = 0.334 (at node 251)
Average injected packet length = 1
Average accepted packet length = 1
Total in-flight flits = 1252 (0 measured)
latency change    = 0.000280655
throughput change = 0.0145147
0
Class 0:
Minimum packet latency = 5
Average packet latency = 15.4887
Maximum packet latency = 25
Minimum network latency = 5
Average network latency = 15.4887
Maximum network latency = 25
Slowest packet = 79308
Minimum flit latency = 5
Average flit latency = 15.4887
Maximum flit latency = 25
Slowest flit = 79308
Minimum fragmentation = 0
Average fragmentation = 0
Maximum fragmentation = 0
Minimum injected packet rate = 0.238 (at node 29)
Average injected packet rate = 0.298266
Maximum injected packet rate = 0.358 (at node 23)
Minimum accepted packet rate = 0.238 (at node 184)
Average accepted packet rate = 0.299133
Maximum accepted packet rate = 0.356 (at node 228)
Minimum injected flit rate = 0.238 (at node 29)
Average injected flit rate = 0.298266
Maximum injected flit rate = 0.358 (at node 23)
Minimum accepted flit rate = 0.238 (at node 184)
Average accepted flit rate = 0.299133
Maximum accepted flit rate = 0.356 (at node 228)
Average injected packet length = 1
Average accepted packet length = 1
Total in-flight flits = 1141 (0 measured)
latency change    = 9.77146e-05
throughput change = 0.0166497
Warmed up ...Time used is 1500 cycles
1
Class 0:
Minimum packet latency = 5
Average packet latency = 15.4914
Maximum packet latency = 27
Minimum network latency = 5
Average network latency = 15.4914
Maximum network latency = 27
Slowest packet = 131658
Minimum flit latency = 5
Average flit latency = 15.5174
Maximum flit latency = 27
Slowest flit = 131658
Minimum fragmentation = 0
Average fragmentation = 0
Maximum fragmentation = 0
Minimum injected packet rate = 0.246 (at node 138)
Average injected packet rate = 0.300984
Maximum injected packet rate = 0.358 (at node 142)
Minimum accepted packet rate = 0.25 (at node 145)
Average accepted packet rate = 0.300445
Maximum accepted packet rate = 0.358 (at node 113)
Minimum injected flit rate = 0.246 (at node 138)
Average injected flit rate = 0.300984
Maximum injected flit rate = 0.358 (at node 142)
Minimum accepted flit rate = 0.25 (at node 145)
Average accepted flit rate = 0.300445
Maximum accepted flit rate = 0.358 (at node 113)
Average injected packet length = 1
Average accepted packet length = 1
Total in-flight flits = 1210 (1210 measured)
latency change    = 0.000175511
throughput change = 0.00436852
1
Class 0:
Minimum packet latency = 5
Average packet latency = 15.5218
Maximum packet latency = 27
Minimum network latency = 5
Average network latency = 15.5218
Maximum network latency = 27
Slowest packet = 131658
Minimum flit latency = 5
Average flit latency = 15.5344
Maximum flit latency = 27
Slowest flit = 131658
Minimum fragmentation = 0
Average fragmentation = 0
Maximum fragmentation = 0
Minimum injected packet rate = 0.266 (at node 138)
Average injected packet rate = 0.300621
Maximum injected packet rate = 0.334 (at node 30)
Minimum accepted packet rate = 0.267 (at node 81)
Average accepted packet rate = 0.300348
Maximum accepted packet rate = 0.335 (at node 172)
Minimum injected flit rate = 0.266 (at node 138)
Average injected flit rate = 0.300621
Maximum injected flit rate = 0.334 (at node 30)
Minimum accepted flit rate = 0.267 (at node 81)
Average accepted flit rate = 0.300348
Maximum accepted flit rate = 0.335 (at node 172)
Average injected packet length = 1
Average accepted packet length = 1
Total in-flight flits = 1211 (1211 measured)
latency change    = 0.00196354
throughput change = 0.000325144
1
Class 0:
Minimum packet latency = 5
Average packet latency = 15.5218
Maximum packet latency = 27
Minimum network latency = 5
Average network latency = 15.5218
Maximum network latency = 27
Slowest packet = 131658
Minimum flit latency = 5
Average flit latency = 15.5302
Maximum flit latency = 27
Slowest flit = 131658
Minimum fragmentation = 0
Average fragmentation = 0
Maximum fragmentation = 0
Minimum injected packet rate = 0.268 (at node 39)
Average injected packet rate = 0.300388
Maximum injected packet rate = 0.336 (at node 142)
Minimum accepted packet rate = 0.268667 (at node 228)
Average accepted packet rate = 0.300164
Maximum accepted packet rate = 0.334667 (at node 113)
Minimum injected flit rate = 0.268 (at node 39)
Average injected flit rate = 0.300388
Maximum injected flit rate = 0.336 (at node 142)
Minimum accepted flit rate = 0.268667 (at node 228)
Average accepted flit rate = 0.300164
Maximum accepted flit rate = 0.334667 (at node 113)
Average injected packet length = 1
Average accepted packet length = 1
Total in-flight flits = 1227 (1227 measured)
latency change    = 1.93317e-06
throughput change = 0.000611645
Draining all recorded packets ...
Draining remaining packets ...
Time taken is 3045 cycles
====== Traffic class 0 ======
Overall minimum packet latency = 5 (1 samples)
Overall average packet latency = 15.5301 (1 samples)
Overall maximum packet latency = 27 (1 samples)
Overall minimum network latency = 5 (1 samples)
Overall average network latency = 15.5301 (1 samples)
Overall maximum network latency = 27 (1 samples)
Overall minimum flit latency = 5 (1 samples)
Overall average flit latency = 15.5387 (1 samples)
Overall maximum flit latency = 27 (1 samples)
Overall minimum fragmentation = 0 (1 samples)
Overall average fragmentation = 0 (1 samples)
Overall maximum fragmentation = 0 (1 samples)
Overall minimum injected packet rate = 0.268 (1 samples)
Overall average injected packet rate = 0.300388 (1 samples)
Overall maximum injected packet rate = 0.336 (1 samples)
Overall minimum accepted packet rate = 0.268667 (1 samples)
Overall average accepted packet rate = 0.300164 (1 samples)
Overall maximum accepted packet rate = 0.334667 (1 samples)
Overall minimum injected flit rate = 0.268 (1 samples)
Overall average injected flit rate = 0.300388 (1 samples)
Overall maximum injected flit rate = 0.336 (1 samples)
Overall minimum accepted flit rate = 0.268667 (1 samples)
Overall average accepted flit rate = 0.300164 (1 samples)
Overall maximum accepted flit rate = 0.334667 (1 samples)
Overall average injected packet size = 1 (1 samples)
Overall average accepted packet size = 1 (1 samples)
Overall average hops = 4.27166 (1 samples)
Total run time 10.7151
