BEGIN Configuration File: ./FBF-3.conf
injection_rate = 0.1;
traffic = asymmetric;
routing_function = ran_min;
vc_buf_size = 16;
topology = flatfly;
use_noc_latency = 0;
hold_switch_for_packet=0;

c = 4;
k = 8;
n = 2;

x  = 8;
y  = 8;
xr = 2;
yr = 2;

packet_size  = 1;
num_vcs      = 2;
vc_allocator = separable_input_first; 
sw_allocator = separable_input_first;

alloc_iters   = 1;
sample_period = 500;

wait_for_tail_credit = 0;
use_read_write       = 0;

credit_delay   = 2;
routing_delay  = 0;
vc_alloc_delay = 1;
sw_alloc_delay = 1;
st_final_delay = 1;

input_speedup     = 1;
output_speedup    = 1;
internal_speedup  = 2.0;

warmup_periods = 3;
sim_count      = 1;

priority = none;
injection_rate_uses_flits=1;

END Configuration File: ./FBF-3.conf
Number of nodes: 256
Number of routers: 64
 Flat Bufferfly 
 k = 8 n = 2 c = 4
 each switch - total radix =  18
 # of switches = 64
 # of channels = 896
 # of nodes ( size of network ) = 256
0
Class 0:
Minimum packet latency = 5
Average packet latency = 6.59893
Maximum packet latency = 10
Minimum network latency = 5
Average network latency = 6.59893
Maximum network latency = 10
Slowest packet = 1138
Minimum flit latency = 5
Average flit latency = 6.59893
Maximum flit latency = 10
Slowest flit = 1138
Minimum fragmentation = 0
Average fragmentation = 0
Maximum fragmentation = 0
Minimum injected packet rate = 0.066 (at node 9)
Average injected packet rate = 0.0990625
Maximum injected packet rate = 0.142 (at node 220)
Minimum accepted packet rate = 0.066 (at node 119)
Average accepted packet rate = 0.0979609
Maximum accepted packet rate = 0.142 (at node 133)
Minimum injected flit rate = 0.066 (at node 9)
Average injected flit rate = 0.0990625
Maximum injected flit rate = 0.142 (at node 220)
Minimum accepted flit rate = 0.066 (at node 119)
Average accepted flit rate = 0.0979609
Maximum accepted flit rate = 0.142 (at node 133)
Average injected packet length = 1
Average accepted packet length = 1
Total in-flight flits = 141 (0 measured)
latency change    = 1
throughput change = 1
0
Class 0:
Minimum packet latency = 5
Average packet latency = 6.57364
Maximum packet latency = 11
Minimum network latency = 5
Average network latency = 6.57364
Maximum network latency = 11
Slowest packet = 19383
Minimum flit latency = 5
Average flit latency = 6.57364
Maximum flit latency = 11
Slowest flit = 19383
Minimum fragmentation = 0
Average fragmentation = 0
Maximum fragmentation = 0
Minimum injected packet rate = 0.072 (at node 166)
Average injected packet rate = 0.0991563
Maximum injected packet rate = 0.13 (at node 22)
Minimum accepted packet rate = 0.078 (at node 126)
Average accepted packet rate = 0.0984258
Maximum accepted packet rate = 0.136 (at node 150)
Minimum injected flit rate = 0.072 (at node 166)
Average injected flit rate = 0.0991563
Maximum injected flit rate = 0.13 (at node 22)
Minimum accepted flit rate = 0.078 (at node 126)
Average accepted flit rate = 0.0984258
Maximum accepted flit rate = 0.136 (at node 150)
Average injected packet length = 1
Average accepted packet length = 1
Total in-flight flits = 187 (0 measured)
latency change    = 0.00384743
throughput change = 0.00472278
0
Class 0:
Minimum packet latency = 5
Average packet latency = 6.57153
Maximum packet latency = 12
Minimum network latency = 5
Average network latency = 6.57153
Maximum network latency = 12
Slowest packet = 33957
Minimum flit latency = 5
Average flit latency = 6.57153
Maximum flit latency = 12
Slowest flit = 33957
Minimum fragmentation = 0
Average fragmentation = 0
Maximum fragmentation = 0
Minimum injected packet rate = 0.064 (at node 15)
Average injected packet rate = 0.0995859
Maximum injected packet rate = 0.142 (at node 21)
Minimum accepted packet rate = 0.056 (at node 43)
Average accepted packet rate = 0.0997734
Maximum accepted packet rate = 0.146 (at node 21)
Minimum injected flit rate = 0.064 (at node 15)
Average injected flit rate = 0.0995859
Maximum injected flit rate = 0.142 (at node 21)
Minimum accepted flit rate = 0.056 (at node 43)
Average accepted flit rate = 0.0997734
Maximum accepted flit rate = 0.146 (at node 21)
Average injected packet length = 1
Average accepted packet length = 1
Total in-flight flits = 163 (0 measured)
latency change    = 0.000321154
throughput change = 0.0135072
Warmed up ...Time used is 1500 cycles
1
Class 0:
Minimum packet latency = 5
Average packet latency = 6.55741
Maximum packet latency = 11
Minimum network latency = 5
Average network latency = 6.55741
Maximum network latency = 11
Slowest packet = 41939
Minimum flit latency = 5
Average flit latency = 6.56239
Maximum flit latency = 11
Slowest flit = 41939
Minimum fragmentation = 0
Average fragmentation = 0
Maximum fragmentation = 0
Minimum injected packet rate = 0.058 (at node 40)
Average injected packet rate = 0.0990859
Maximum injected packet rate = 0.15 (at node 87)
Minimum accepted packet rate = 0.058 (at node 146)
Average accepted packet rate = 0.0991172
Maximum accepted packet rate = 0.146 (at node 36)
Minimum injected flit rate = 0.058 (at node 40)
Average injected flit rate = 0.0990859
Maximum injected flit rate = 0.15 (at node 87)
Minimum accepted flit rate = 0.058 (at node 146)
Average accepted flit rate = 0.0991172
Maximum accepted flit rate = 0.146 (at node 36)
Average injected packet length = 1
Average accepted packet length = 1
Total in-flight flits = 159 (159 measured)
latency change    = 0.00215321
throughput change = 0.00662095
1
Class 0:
Minimum packet latency = 5
Average packet latency = 6.5759
Maximum packet latency = 11
Minimum network latency = 5
Average network latency = 6.5759
Maximum network latency = 11
Slowest packet = 41939
Minimum flit latency = 5
Average flit latency = 6.57825
Maximum flit latency = 11
Slowest flit = 41939
Minimum fragmentation = 0
Average fragmentation = 0
Maximum fragmentation = 0
Minimum injected packet rate = 0.072 (at node 39)
Average injected packet rate = 0.0996875
Maximum injected packet rate = 0.132 (at node 87)
Minimum accepted packet rate = 0.068 (at node 63)
Average accepted packet rate = 0.0996602
Maximum accepted packet rate = 0.124 (at node 69)
Minimum injected flit rate = 0.072 (at node 39)
Average injected flit rate = 0.0996875
Maximum injected flit rate = 0.132 (at node 87)
Minimum accepted flit rate = 0.068 (at node 63)
Average accepted flit rate = 0.0996602
Maximum accepted flit rate = 0.124 (at node 69)
Average injected packet length = 1
Average accepted packet length = 1
Total in-flight flits = 170 (170 measured)
latency change    = 0.00281143
throughput change = 0.0054482
1
Class 0:
Minimum packet latency = 5
Average packet latency = 6.56789
Maximum packet latency = 11
Minimum network latency = 5
Average network latency = 6.56789
Maximum network latency = 11
Slowest packet = 41939
Minimum flit latency = 5
Average flit latency = 6.56949
Maximum flit latency = 11
Slowest flit = 41939
Minimum fragmentation = 0
Average fragmentation = 0
Maximum fragmentation = 0
Minimum injected packet rate = 0.078 (at node 39)
Average injected packet rate = 0.100076
Maximum injected packet rate = 0.128667 (at node 87)
Minimum accepted packet rate = 0.0773333 (at node 210)
Average accepted packet rate = 0.100094
Maximum accepted packet rate = 0.126667 (at node 94)
Minimum injected flit rate = 0.078 (at node 39)
Average injected flit rate = 0.100076
Maximum injected flit rate = 0.128667 (at node 87)
Minimum accepted flit rate = 0.0773333 (at node 210)
Average accepted flit rate = 0.100094
Maximum accepted flit rate = 0.126667 (at node 94)
Average injected packet length = 1
Average accepted packet length = 1
Total in-flight flits = 156 (156 measured)
latency change    = 0.0012186
throughput change = 0.00433188
Draining all recorded packets ...
Draining remaining packets ...
Time taken is 3022 cycles
====== Traffic class 0 ======
Overall minimum packet latency = 5 (1 samples)
Overall average packet latency = 6.56978 (1 samples)
Overall maximum packet latency = 11 (1 samples)
Overall minimum network latency = 5 (1 samples)
Overall average network latency = 6.56978 (1 samples)
Overall maximum network latency = 11 (1 samples)
Overall minimum flit latency = 5 (1 samples)
Overall average flit latency = 6.5718 (1 samples)
Overall maximum flit latency = 11 (1 samples)
Overall minimum fragmentation = 0 (1 samples)
Overall average fragmentation = 0 (1 samples)
Overall maximum fragmentation = 0 (1 samples)
Overall minimum injected packet rate = 0.078 (1 samples)
Overall average injected packet rate = 0.100076 (1 samples)
Overall maximum injected packet rate = 0.128667 (1 samples)
Overall minimum accepted packet rate = 0.0773333 (1 samples)
Overall average accepted packet rate = 0.100094 (1 samples)
Overall maximum accepted packet rate = 0.126667 (1 samples)
Overall minimum injected flit rate = 0.078 (1 samples)
Overall average injected flit rate = 0.100076 (1 samples)
Overall maximum injected flit rate = 0.128667 (1 samples)
Overall minimum accepted flit rate = 0.0773333 (1 samples)
Overall average accepted flit rate = 0.100094 (1 samples)
Overall maximum accepted flit rate = 0.126667 (1 samples)
Overall average injected packet size = 1 (1 samples)
Overall average accepted packet size = 1 (1 samples)
Overall average hops = 1.49835 (1 samples)
Total run time 2.87559
