BEGIN Configuration File: ./FBF-3.conf
injection_rate = 0.5;
traffic = uniform;
routing_function = valiant;
vc_buf_size = 16;
topology = flatfly;
use_noc_latency = 0;
hold_switch_for_packet=0;

c = 4;
k = 8;
n = 2;

x  = 8;
y  = 8;
xr = 2;
yr = 2;

packet_size  = 1;
num_vcs      = 2;
vc_allocator = separable_input_first; 
sw_allocator = separable_input_first;

alloc_iters   = 1;
sample_period = 500;

wait_for_tail_credit = 0;
use_read_write       = 0;

credit_delay   = 2;
routing_delay  = 0;
vc_alloc_delay = 1;
sw_alloc_delay = 1;
st_final_delay = 1;

input_speedup     = 1;
output_speedup    = 1;
internal_speedup  = 2.0;

warmup_periods = 3;
sim_count      = 1;

priority = none;
injection_rate_uses_flits=1;

END Configuration File: ./FBF-3.conf
Number of nodes: 256
Number of routers: 64
 Flat Bufferfly 
 k = 8 n = 2 c = 4
 each switch - total radix =  18
 # of switches = 64
 # of channels = 896
 # of nodes ( size of network ) = 256
0
Class 0:
Minimum packet latency = 5
Average packet latency = 17.3563
Maximum packet latency = 34
Minimum network latency = 5
Average network latency = 17.3563
Maximum network latency = 34
Slowest packet = 35696
Minimum flit latency = 5
Average flit latency = 17.3563
Maximum flit latency = 34
Slowest flit = 35696
Minimum fragmentation = 0
Average fragmentation = 0
Maximum fragmentation = 0
Minimum injected packet rate = 0.426 (at node 110)
Average injected packet rate = 0.499609
Maximum injected packet rate = 0.562 (at node 22)
Minimum accepted packet rate = 0.406 (at node 125)
Average accepted packet rate = 0.482219
Maximum accepted packet rate = 0.572 (at node 66)
Minimum injected flit rate = 0.426 (at node 110)
Average injected flit rate = 0.499609
Maximum injected flit rate = 0.562 (at node 22)
Minimum accepted flit rate = 0.406 (at node 125)
Average accepted flit rate = 0.482219
Maximum accepted flit rate = 0.572 (at node 66)
Average injected packet length = 1
Average accepted packet length = 1
Total in-flight flits = 2226 (0 measured)
latency change    = 1
throughput change = 1
0
Class 0:
Minimum packet latency = 5
Average packet latency = 17.3867
Maximum packet latency = 34
Minimum network latency = 5
Average network latency = 17.3867
Maximum network latency = 34
Slowest packet = 35696
Minimum flit latency = 5
Average flit latency = 17.3867
Maximum flit latency = 34
Slowest flit = 35696
Minimum fragmentation = 0
Average fragmentation = 0
Maximum fragmentation = 0
Minimum injected packet rate = 0.448 (at node 173)
Average injected packet rate = 0.499969
Maximum injected packet rate = 0.541 (at node 74)
Minimum accepted packet rate = 0.43 (at node 22)
Average accepted packet rate = 0.491094
Maximum accepted packet rate = 0.546 (at node 7)
Minimum injected flit rate = 0.448 (at node 173)
Average injected flit rate = 0.499969
Maximum injected flit rate = 0.541 (at node 74)
Minimum accepted flit rate = 0.43 (at node 22)
Average accepted flit rate = 0.491094
Maximum accepted flit rate = 0.546 (at node 7)
Average injected packet length = 1
Average accepted packet length = 1
Total in-flight flits = 2272 (0 measured)
latency change    = 0.00175196
throughput change = 0.0180719
0
Class 0:
Minimum packet latency = 5
Average packet latency = 17.4399
Maximum packet latency = 34
Minimum network latency = 5
Average network latency = 17.4399
Maximum network latency = 34
Slowest packet = 129335
Minimum flit latency = 5
Average flit latency = 17.4399
Maximum flit latency = 34
Slowest flit = 129335
Minimum fragmentation = 0
Average fragmentation = 0
Maximum fragmentation = 0
Minimum injected packet rate = 0.444 (at node 152)
Average injected packet rate = 0.500117
Maximum injected packet rate = 0.562 (at node 51)
Minimum accepted packet rate = 0.424 (at node 213)
Average accepted packet rate = 0.500875
Maximum accepted packet rate = 0.586 (at node 180)
Minimum injected flit rate = 0.444 (at node 152)
Average injected flit rate = 0.500117
Maximum injected flit rate = 0.562 (at node 51)
Minimum accepted flit rate = 0.424 (at node 213)
Average accepted flit rate = 0.500875
Maximum accepted flit rate = 0.586 (at node 180)
Average injected packet length = 1
Average accepted packet length = 1
Total in-flight flits = 2175 (0 measured)
latency change    = 0.0030456
throughput change = 0.0195283
Warmed up ...Time used is 1500 cycles
1
Class 0:
Minimum packet latency = 5
Average packet latency = 17.4238
Maximum packet latency = 32
Minimum network latency = 5
Average network latency = 17.4238
Maximum network latency = 32
Slowest packet = 212570
Minimum flit latency = 5
Average flit latency = 17.4434
Maximum flit latency = 32
Slowest flit = 212570
Minimum fragmentation = 0
Average fragmentation = 0
Maximum fragmentation = 0
Minimum injected packet rate = 0.44 (at node 50)
Average injected packet rate = 0.501266
Maximum injected packet rate = 0.562 (at node 115)
Minimum accepted packet rate = 0.418 (at node 104)
Average accepted packet rate = 0.500758
Maximum accepted packet rate = 0.6 (at node 124)
Minimum injected flit rate = 0.44 (at node 50)
Average injected flit rate = 0.501266
Maximum injected flit rate = 0.562 (at node 115)
Minimum accepted flit rate = 0.418 (at node 104)
Average accepted flit rate = 0.500758
Maximum accepted flit rate = 0.6 (at node 124)
Average injected packet length = 1
Average accepted packet length = 1
Total in-flight flits = 2240 (2240 measured)
latency change    = 0.000920104
throughput change = 0.00023402
1
Class 0:
Minimum packet latency = 5
Average packet latency = 17.4389
Maximum packet latency = 35
Minimum network latency = 5
Average network latency = 17.4389
Maximum network latency = 35
Slowest packet = 270210
Minimum flit latency = 5
Average flit latency = 17.4484
Maximum flit latency = 35
Slowest flit = 270210
Minimum fragmentation = 0
Average fragmentation = 0
Maximum fragmentation = 0
Minimum injected packet rate = 0.46 (at node 50)
Average injected packet rate = 0.500695
Maximum injected packet rate = 0.546 (at node 115)
Minimum accepted packet rate = 0.439 (at node 44)
Average accepted packet rate = 0.500742
Maximum accepted packet rate = 0.568 (at node 124)
Minimum injected flit rate = 0.46 (at node 50)
Average injected flit rate = 0.500695
Maximum injected flit rate = 0.546 (at node 115)
Minimum accepted flit rate = 0.439 (at node 44)
Average accepted flit rate = 0.500742
Maximum accepted flit rate = 0.568 (at node 124)
Average injected packet length = 1
Average accepted packet length = 1
Total in-flight flits = 2163 (2163 measured)
latency change    = 0.000864539
throughput change = 3.12037e-05
1
Class 0:
Minimum packet latency = 5
Average packet latency = 17.419
Maximum packet latency = 35
Minimum network latency = 5
Average network latency = 17.419
Maximum network latency = 35
Slowest packet = 270210
Minimum flit latency = 5
Average flit latency = 17.4256
Maximum flit latency = 35
Slowest flit = 270210
Minimum fragmentation = 0
Average fragmentation = 0
Maximum fragmentation = 0
Minimum injected packet rate = 0.465333 (at node 252)
Average injected packet rate = 0.500591
Maximum injected packet rate = 0.534 (at node 42)
Minimum accepted packet rate = 0.443333 (at node 44)
Average accepted packet rate = 0.500365
Maximum accepted packet rate = 0.549333 (at node 56)
Minimum injected flit rate = 0.465333 (at node 252)
Average injected flit rate = 0.500591
Maximum injected flit rate = 0.534 (at node 42)
Minimum accepted flit rate = 0.443333 (at node 44)
Average accepted flit rate = 0.500365
Maximum accepted flit rate = 0.549333 (at node 56)
Average injected packet length = 1
Average accepted packet length = 1
Total in-flight flits = 2262 (2262 measured)
latency change    = 0.00114133
throughput change = 0.000754658
Draining all recorded packets ...
Draining remaining packets ...
Time taken is 3055 cycles
====== Traffic class 0 ======
Overall minimum packet latency = 5 (1 samples)
Overall average packet latency = 17.4282 (1 samples)
Overall maximum packet latency = 35 (1 samples)
Overall minimum network latency = 5 (1 samples)
Overall average network latency = 17.4282 (1 samples)
Overall maximum network latency = 35 (1 samples)
Overall minimum flit latency = 5 (1 samples)
Overall average flit latency = 17.4314 (1 samples)
Overall maximum flit latency = 35 (1 samples)
Overall minimum fragmentation = 0 (1 samples)
Overall average fragmentation = 0 (1 samples)
Overall maximum fragmentation = 0 (1 samples)
Overall minimum injected packet rate = 0.465333 (1 samples)
Overall average injected packet rate = 0.500591 (1 samples)
Overall maximum injected packet rate = 0.534 (1 samples)
Overall minimum accepted packet rate = 0.443333 (1 samples)
Overall average accepted packet rate = 0.500365 (1 samples)
Overall maximum accepted packet rate = 0.549333 (1 samples)
Overall minimum injected flit rate = 0.465333 (1 samples)
Overall average injected flit rate = 0.500591 (1 samples)
Overall maximum injected flit rate = 0.534 (1 samples)
Overall minimum accepted flit rate = 0.443333 (1 samples)
Overall average accepted flit rate = 0.500365 (1 samples)
Overall maximum accepted flit rate = 0.549333 (1 samples)
Overall average injected packet size = 1 (1 samples)
Overall average accepted packet size = 1 (1 samples)
Overall average hops = 4.42289 (1 samples)
Total run time 18.1769
