BEGIN Configuration File: ./FBF-3.conf
injection_rate = 0.5;
traffic = uniform;
routing_function = ugal;
vc_buf_size = 16;
topology = flatfly;
use_noc_latency = 0;
hold_switch_for_packet=0;

c = 4;
k = 8;
n = 2;

x  = 8;
y  = 8;
xr = 2;
yr = 2;

packet_size  = 1;
num_vcs      = 2;
vc_allocator = separable_input_first; 
sw_allocator = separable_input_first;

alloc_iters   = 1;
sample_period = 500;

wait_for_tail_credit = 0;
use_read_write       = 0;

credit_delay   = 2;
routing_delay  = 0;
vc_alloc_delay = 1;
sw_alloc_delay = 1;
st_final_delay = 1;

input_speedup     = 1;
output_speedup    = 1;
internal_speedup  = 2.0;

warmup_periods = 3;
sim_count      = 1;

priority = none;
injection_rate_uses_flits=1;

END Configuration File: ./FBF-3.conf
Number of nodes: 256
Number of routers: 64
 Flat Bufferfly 
 k = 8 n = 2 c = 4
 each switch - total radix =  18
 # of switches = 64
 # of channels = 896
 # of nodes ( size of network ) = 256
0
Class 0:
Minimum packet latency = 5
Average packet latency = 11.5157
Maximum packet latency = 26
Minimum network latency = 5
Average network latency = 11.5157
Maximum network latency = 26
Slowest packet = 30517
Minimum flit latency = 5
Average flit latency = 11.5157
Maximum flit latency = 26
Slowest flit = 30517
Minimum fragmentation = 0
Average fragmentation = 0
Maximum fragmentation = 0
Minimum injected packet rate = 0.426 (at node 110)
Average injected packet rate = 0.499609
Maximum injected packet rate = 0.562 (at node 22)
Minimum accepted packet rate = 0.406 (at node 237)
Average accepted packet rate = 0.488227
Maximum accepted packet rate = 0.57 (at node 143)
Minimum injected flit rate = 0.426 (at node 110)
Average injected flit rate = 0.499609
Maximum injected flit rate = 0.562 (at node 22)
Minimum accepted flit rate = 0.406 (at node 237)
Average accepted flit rate = 0.488227
Maximum accepted flit rate = 0.57 (at node 143)
Average injected packet length = 1
Average accepted packet length = 1
Total in-flight flits = 1457 (0 measured)
latency change    = 1
throughput change = 1
0
Class 0:
Minimum packet latency = 5
Average packet latency = 11.5223
Maximum packet latency = 26
Minimum network latency = 5
Average network latency = 11.5223
Maximum network latency = 26
Slowest packet = 30517
Minimum flit latency = 5
Average flit latency = 11.5223
Maximum flit latency = 26
Slowest flit = 30517
Minimum fragmentation = 0
Average fragmentation = 0
Maximum fragmentation = 0
Minimum injected packet rate = 0.448 (at node 173)
Average injected packet rate = 0.499969
Maximum injected packet rate = 0.541 (at node 74)
Minimum accepted packet rate = 0.409 (at node 237)
Average accepted packet rate = 0.49398
Maximum accepted packet rate = 0.552 (at node 140)
Minimum injected flit rate = 0.448 (at node 173)
Average injected flit rate = 0.499969
Maximum injected flit rate = 0.541 (at node 74)
Minimum accepted flit rate = 0.409 (at node 237)
Average accepted flit rate = 0.49398
Maximum accepted flit rate = 0.552 (at node 140)
Average injected packet length = 1
Average accepted packet length = 1
Total in-flight flits = 1533 (0 measured)
latency change    = 0.000573976
throughput change = 0.011648
0
Class 0:
Minimum packet latency = 5
Average packet latency = 11.5241
Maximum packet latency = 26
Minimum network latency = 5
Average network latency = 11.5241
Maximum network latency = 26
Slowest packet = 181780
Minimum flit latency = 5
Average flit latency = 11.5241
Maximum flit latency = 26
Slowest flit = 181780
Minimum fragmentation = 0
Average fragmentation = 0
Maximum fragmentation = 0
Minimum injected packet rate = 0.444 (at node 152)
Average injected packet rate = 0.500117
Maximum injected packet rate = 0.562 (at node 51)
Minimum accepted packet rate = 0.4 (at node 172)
Average accepted packet rate = 0.500578
Maximum accepted packet rate = 0.61 (at node 230)
Minimum injected flit rate = 0.444 (at node 152)
Average injected flit rate = 0.500117
Maximum injected flit rate = 0.562 (at node 51)
Minimum accepted flit rate = 0.4 (at node 172)
Average accepted flit rate = 0.500578
Maximum accepted flit rate = 0.61 (at node 230)
Average injected packet length = 1
Average accepted packet length = 1
Total in-flight flits = 1474 (0 measured)
latency change    = 0.000151529
throughput change = 0.0131801
Warmed up ...Time used is 1500 cycles
1
Class 0:
Minimum packet latency = 5
Average packet latency = 11.5307
Maximum packet latency = 26
Minimum network latency = 5
Average network latency = 11.5307
Maximum network latency = 26
Slowest packet = 216772
Minimum flit latency = 5
Average flit latency = 11.5438
Maximum flit latency = 26
Slowest flit = 216772
Minimum fragmentation = 0
Average fragmentation = 0
Maximum fragmentation = 0
Minimum injected packet rate = 0.44 (at node 50)
Average injected packet rate = 0.501266
Maximum injected packet rate = 0.562 (at node 115)
Minimum accepted packet rate = 0.426 (at node 86)
Average accepted packet rate = 0.501375
Maximum accepted packet rate = 0.57 (at node 157)
Minimum injected flit rate = 0.44 (at node 50)
Average injected flit rate = 0.501266
Maximum injected flit rate = 0.562 (at node 115)
Minimum accepted flit rate = 0.426 (at node 86)
Average accepted flit rate = 0.501375
Maximum accepted flit rate = 0.57 (at node 157)
Average injected packet length = 1
Average accepted packet length = 1
Total in-flight flits = 1460 (1460 measured)
latency change    = 0.000571289
throughput change = 0.00158938
1
Class 0:
Minimum packet latency = 5
Average packet latency = 11.5188
Maximum packet latency = 26
Minimum network latency = 5
Average network latency = 11.5188
Maximum network latency = 26
Slowest packet = 216772
Minimum flit latency = 5
Average flit latency = 11.5255
Maximum flit latency = 26
Slowest flit = 216772
Minimum fragmentation = 0
Average fragmentation = 0
Maximum fragmentation = 0
Minimum injected packet rate = 0.46 (at node 50)
Average injected packet rate = 0.500695
Maximum injected packet rate = 0.546 (at node 115)
Minimum accepted packet rate = 0.436 (at node 210)
Average accepted packet rate = 0.50091
Maximum accepted packet rate = 0.563 (at node 195)
Minimum injected flit rate = 0.46 (at node 50)
Average injected flit rate = 0.500695
Maximum injected flit rate = 0.546 (at node 115)
Minimum accepted flit rate = 0.436 (at node 210)
Average accepted flit rate = 0.50091
Maximum accepted flit rate = 0.563 (at node 195)
Average injected packet length = 1
Average accepted packet length = 1
Total in-flight flits = 1419 (1419 measured)
latency change    = 0.0010301
throughput change = 0.000927998
1
Class 0:
Minimum packet latency = 5
Average packet latency = 11.5184
Maximum packet latency = 26
Minimum network latency = 5
Average network latency = 11.5184
Maximum network latency = 26
Slowest packet = 216772
Minimum flit latency = 5
Average flit latency = 11.5229
Maximum flit latency = 26
Slowest flit = 216772
Minimum fragmentation = 0
Average fragmentation = 0
Maximum fragmentation = 0
Minimum injected packet rate = 0.465333 (at node 252)
Average injected packet rate = 0.500591
Maximum injected packet rate = 0.534 (at node 42)
Minimum accepted packet rate = 0.452 (at node 232)
Average accepted packet rate = 0.500549
Maximum accepted packet rate = 0.542 (at node 195)
Minimum injected flit rate = 0.465333 (at node 252)
Average injected flit rate = 0.500591
Maximum injected flit rate = 0.534 (at node 42)
Minimum accepted flit rate = 0.452 (at node 232)
Average accepted flit rate = 0.500549
Maximum accepted flit rate = 0.542 (at node 195)
Average injected packet length = 1
Average accepted packet length = 1
Total in-flight flits = 1490 (1490 measured)
latency change    = 3.5505e-05
throughput change = 0.000720562
Draining all recorded packets ...
Draining remaining packets ...
Time taken is 3043 cycles
====== Traffic class 0 ======
Overall minimum packet latency = 5 (1 samples)
Overall average packet latency = 11.5227 (1 samples)
Overall maximum packet latency = 26 (1 samples)
Overall minimum network latency = 5 (1 samples)
Overall average network latency = 11.5227 (1 samples)
Overall maximum network latency = 26 (1 samples)
Overall minimum flit latency = 5 (1 samples)
Overall average flit latency = 11.5262 (1 samples)
Overall maximum flit latency = 26 (1 samples)
Overall minimum fragmentation = 0 (1 samples)
Overall average fragmentation = 0 (1 samples)
Overall maximum fragmentation = 0 (1 samples)
Overall minimum injected packet rate = 0.465333 (1 samples)
Overall average injected packet rate = 0.500591 (1 samples)
Overall maximum injected packet rate = 0.534 (1 samples)
Overall minimum accepted packet rate = 0.452 (1 samples)
Overall average accepted packet rate = 0.500549 (1 samples)
Overall maximum accepted packet rate = 0.542 (1 samples)
Overall minimum injected flit rate = 0.465333 (1 samples)
Overall average injected flit rate = 0.500591 (1 samples)
Overall maximum injected flit rate = 0.534 (1 samples)
Overall minimum accepted flit rate = 0.452 (1 samples)
Overall average accepted flit rate = 0.500549 (1 samples)
Overall maximum accepted flit rate = 0.542 (1 samples)
Overall average injected packet size = 1 (1 samples)
Overall average accepted packet size = 1 (1 samples)
Overall average hops = 2.89165 (1 samples)
Total run time 12.8234
