BEGIN Configuration File: ./FBF-3.conf
injection_rate = 0.2;
traffic = uniform;
routing_function = valiant;
vc_buf_size = 16;
topology = flatfly;
use_noc_latency = 0;
hold_switch_for_packet=0;

c = 4;
k = 8;
n = 2;

x  = 8;
y  = 8;
xr = 2;
yr = 2;

packet_size  = 1;
num_vcs      = 2;
vc_allocator = separable_input_first; 
sw_allocator = separable_input_first;

alloc_iters   = 1;
sample_period = 500;

wait_for_tail_credit = 0;
use_read_write       = 0;

credit_delay   = 2;
routing_delay  = 0;
vc_alloc_delay = 1;
sw_alloc_delay = 1;
st_final_delay = 1;

input_speedup     = 1;
output_speedup    = 1;
internal_speedup  = 2.0;

warmup_periods = 3;
sim_count      = 1;

priority = none;
injection_rate_uses_flits=1;

END Configuration File: ./FBF-3.conf
Number of nodes: 256
Number of routers: 64
 Flat Bufferfly 
 k = 8 n = 2 c = 4
 each switch - total radix =  18
 # of switches = 64
 # of channels = 896
 # of nodes ( size of network ) = 256
0
Class 0:
Minimum packet latency = 5
Average packet latency = 15.7681
Maximum packet latency = 24
Minimum network latency = 5
Average network latency = 15.7681
Maximum network latency = 24
Slowest packet = 17778
Minimum flit latency = 5
Average flit latency = 15.7681
Maximum flit latency = 24
Slowest flit = 17778
Minimum fragmentation = 0
Average fragmentation = 0
Maximum fragmentation = 0
Minimum injected packet rate = 0.158 (at node 1)
Average injected packet rate = 0.198797
Maximum injected packet rate = 0.254 (at node 239)
Minimum accepted packet rate = 0.134 (at node 82)
Average accepted packet rate = 0.192508
Maximum accepted packet rate = 0.244 (at node 48)
Minimum injected flit rate = 0.158 (at node 1)
Average injected flit rate = 0.198797
Maximum injected flit rate = 0.254 (at node 239)
Minimum accepted flit rate = 0.134 (at node 82)
Average accepted flit rate = 0.192508
Maximum accepted flit rate = 0.244 (at node 48)
Average injected packet length = 1
Average accepted packet length = 1
Total in-flight flits = 805 (0 measured)
latency change    = 1
throughput change = 1
0
Class 0:
Minimum packet latency = 5
Average packet latency = 15.7646
Maximum packet latency = 24
Minimum network latency = 5
Average network latency = 15.7646
Maximum network latency = 24
Slowest packet = 17778
Minimum flit latency = 5
Average flit latency = 15.7646
Maximum flit latency = 24
Slowest flit = 17778
Minimum fragmentation = 0
Average fragmentation = 0
Maximum fragmentation = 0
Minimum injected packet rate = 0.17 (at node 104)
Average injected packet rate = 0.199156
Maximum injected packet rate = 0.232 (at node 22)
Minimum accepted packet rate = 0.161 (at node 43)
Average accepted packet rate = 0.195852
Maximum accepted packet rate = 0.239 (at node 208)
Minimum injected flit rate = 0.17 (at node 104)
Average injected flit rate = 0.199156
Maximum injected flit rate = 0.232 (at node 22)
Minimum accepted flit rate = 0.161 (at node 43)
Average accepted flit rate = 0.195852
Maximum accepted flit rate = 0.239 (at node 208)
Average injected packet length = 1
Average accepted packet length = 1
Total in-flight flits = 846 (0 measured)
latency change    = 0.000218201
throughput change = 0.0170729
0
Class 0:
Minimum packet latency = 5
Average packet latency = 15.7827
Maximum packet latency = 23
Minimum network latency = 5
Average network latency = 15.7827
Maximum network latency = 23
Slowest packet = 55562
Minimum flit latency = 5
Average flit latency = 15.7827
Maximum flit latency = 23
Slowest flit = 55562
Minimum fragmentation = 0
Average fragmentation = 0
Maximum fragmentation = 0
Minimum injected packet rate = 0.148 (at node 29)
Average injected packet rate = 0.199695
Maximum injected packet rate = 0.264 (at node 39)
Minimum accepted packet rate = 0.144 (at node 112)
Average accepted packet rate = 0.20025
Maximum accepted packet rate = 0.264 (at node 28)
Minimum injected flit rate = 0.148 (at node 29)
Average injected flit rate = 0.199695
Maximum injected flit rate = 0.264 (at node 39)
Minimum accepted flit rate = 0.144 (at node 112)
Average accepted flit rate = 0.20025
Maximum accepted flit rate = 0.264 (at node 28)
Average injected packet length = 1
Average accepted packet length = 1
Total in-flight flits = 775 (0 measured)
latency change    = 0.00114207
throughput change = 0.0219647
Warmed up ...Time used is 1500 cycles
1
Class 0:
Minimum packet latency = 5
Average packet latency = 15.7421
Maximum packet latency = 25
Minimum network latency = 5
Average network latency = 15.7421
Maximum network latency = 25
Slowest packet = 80621
Minimum flit latency = 5
Average flit latency = 15.7529
Maximum flit latency = 25
Slowest flit = 80621
Minimum fragmentation = 0
Average fragmentation = 0
Maximum fragmentation = 0
Minimum injected packet rate = 0.142 (at node 174)
Average injected packet rate = 0.1995
Maximum injected packet rate = 0.252 (at node 122)
Minimum accepted packet rate = 0.142 (at node 174)
Average accepted packet rate = 0.19925
Maximum accepted packet rate = 0.26 (at node 54)
Minimum injected flit rate = 0.142 (at node 174)
Average injected flit rate = 0.1995
Maximum injected flit rate = 0.252 (at node 122)
Minimum accepted flit rate = 0.142 (at node 174)
Average accepted flit rate = 0.19925
Maximum accepted flit rate = 0.26 (at node 54)
Average injected packet length = 1
Average accepted packet length = 1
Total in-flight flits = 807 (807 measured)
latency change    = 0.00257719
throughput change = 0.00501882
1
Class 0:
Minimum packet latency = 5
Average packet latency = 15.7634
Maximum packet latency = 25
Minimum network latency = 5
Average network latency = 15.7634
Maximum network latency = 25
Slowest packet = 80621
Minimum flit latency = 5
Average flit latency = 15.7684
Maximum flit latency = 25
Slowest flit = 80621
Minimum fragmentation = 0
Average fragmentation = 0
Maximum fragmentation = 0
Minimum injected packet rate = 0.165 (at node 191)
Average injected packet rate = 0.200563
Maximum injected packet rate = 0.24 (at node 53)
Minimum accepted packet rate = 0.151 (at node 174)
Average accepted packet rate = 0.200328
Maximum accepted packet rate = 0.248 (at node 235)
Minimum injected flit rate = 0.165 (at node 191)
Average injected flit rate = 0.200563
Maximum injected flit rate = 0.24 (at node 53)
Minimum accepted flit rate = 0.151 (at node 174)
Average accepted flit rate = 0.200328
Maximum accepted flit rate = 0.248 (at node 235)
Average injected packet length = 1
Average accepted packet length = 1
Total in-flight flits = 835 (835 measured)
latency change    = 0.00135026
throughput change = 0.0053818
1
Class 0:
Minimum packet latency = 5
Average packet latency = 15.7614
Maximum packet latency = 25
Minimum network latency = 5
Average network latency = 15.7614
Maximum network latency = 25
Slowest packet = 80621
Minimum flit latency = 5
Average flit latency = 15.7648
Maximum flit latency = 25
Slowest flit = 80621
Minimum fragmentation = 0
Average fragmentation = 0
Maximum fragmentation = 0
Minimum injected packet rate = 0.169333 (at node 174)
Average injected packet rate = 0.200125
Maximum injected packet rate = 0.230667 (at node 163)
Minimum accepted packet rate = 0.164 (at node 174)
Average accepted packet rate = 0.200044
Maximum accepted packet rate = 0.230667 (at node 235)
Minimum injected flit rate = 0.169333 (at node 174)
Average injected flit rate = 0.200125
Maximum injected flit rate = 0.230667 (at node 163)
Minimum accepted flit rate = 0.164 (at node 174)
Average accepted flit rate = 0.200044
Maximum accepted flit rate = 0.230667 (at node 235)
Average injected packet length = 1
Average accepted packet length = 1
Total in-flight flits = 806 (806 measured)
latency change    = 0.000125235
throughput change = 0.00141896
Draining all recorded packets ...
Draining remaining packets ...
Time taken is 3041 cycles
====== Traffic class 0 ======
Overall minimum packet latency = 5 (1 samples)
Overall average packet latency = 15.7649 (1 samples)
Overall maximum packet latency = 25 (1 samples)
Overall minimum network latency = 5 (1 samples)
Overall average network latency = 15.7649 (1 samples)
Overall maximum network latency = 25 (1 samples)
Overall minimum flit latency = 5 (1 samples)
Overall average flit latency = 15.7662 (1 samples)
Overall maximum flit latency = 25 (1 samples)
Overall minimum fragmentation = 0 (1 samples)
Overall average fragmentation = 0 (1 samples)
Overall maximum fragmentation = 0 (1 samples)
Overall minimum injected packet rate = 0.169333 (1 samples)
Overall average injected packet rate = 0.200125 (1 samples)
Overall maximum injected packet rate = 0.230667 (1 samples)
Overall minimum accepted packet rate = 0.164 (1 samples)
Overall average accepted packet rate = 0.200044 (1 samples)
Overall maximum accepted packet rate = 0.230667 (1 samples)
Overall minimum injected flit rate = 0.169333 (1 samples)
Overall average injected flit rate = 0.200125 (1 samples)
Overall maximum injected flit rate = 0.230667 (1 samples)
Overall minimum accepted flit rate = 0.164 (1 samples)
Overall average accepted flit rate = 0.200044 (1 samples)
Overall maximum accepted flit rate = 0.230667 (1 samples)
Overall average injected packet size = 1 (1 samples)
Overall average accepted packet size = 1 (1 samples)
Overall average hops = 4.41685 (1 samples)
Total run time 7.80976
