BEGIN Configuration File: ./FBF-3.conf
injection_rate = 0.7;
traffic = bitrev;
routing_function = xyyx;
vc_buf_size = 16;
topology = flatfly;
use_noc_latency = 0;
hold_switch_for_packet=0;

c = 4;
k = 8;
n = 2;

x  = 8;
y  = 8;
xr = 2;
yr = 2;

packet_size  = 1;
num_vcs      = 2;
vc_allocator = separable_input_first; 
sw_allocator = separable_input_first;

alloc_iters   = 1;
sample_period = 500;

wait_for_tail_credit = 0;
use_read_write       = 0;

credit_delay   = 2;
routing_delay  = 0;
vc_alloc_delay = 1;
sw_alloc_delay = 1;
st_final_delay = 1;

input_speedup     = 1;
output_speedup    = 1;
internal_speedup  = 2.0;

warmup_periods = 3;
sim_count      = 1;

priority = none;
injection_rate_uses_flits=1;

END Configuration File: ./FBF-3.conf
Number of nodes: 256
Number of routers: 64
 Flat Bufferfly 
 k = 8 n = 2 c = 4
 each switch - total radix =  18
 # of switches = 64
 # of channels = 896
 # of nodes ( size of network ) = 256
0
Class 0:
Minimum packet latency = 5
Average packet latency = 23.0667
Maximum packet latency = 228
Minimum network latency = 5
Average network latency = 21.5915
Maximum network latency = 170
Slowest packet = 29899
Minimum flit latency = 5
Average flit latency = 21.5915
Maximum flit latency = 170
Slowest flit = 36516
Minimum fragmentation = 0
Average fragmentation = 0
Maximum fragmentation = 0
Minimum injected packet rate = 0.492 (at node 172)
Average injected packet rate = 0.679984
Maximum injected packet rate = 0.772 (at node 3)
Minimum accepted packet rate = 0.392 (at node 53)
Average accepted packet rate = 0.646539
Maximum accepted packet rate = 0.746 (at node 192)
Minimum injected flit rate = 0.492 (at node 172)
Average injected flit rate = 0.679984
Maximum injected flit rate = 0.772 (at node 3)
Minimum accepted flit rate = 0.392 (at node 53)
Average accepted flit rate = 0.646539
Maximum accepted flit rate = 0.746 (at node 192)
Average injected packet length = 1
Average accepted packet length = 1
Total in-flight flits = 4304 (0 measured)
latency change    = 1
throughput change = 1
0
Class 0:
Minimum packet latency = 5
Average packet latency = 32.2155
Maximum packet latency = 431
Minimum network latency = 5
Average network latency = 23.1905
Maximum network latency = 182
Slowest packet = 29899
Minimum flit latency = 5
Average flit latency = 23.1905
Maximum flit latency = 182
Slowest flit = 78938
Minimum fragmentation = 0
Average fragmentation = 0
Maximum fragmentation = 0
Minimum injected packet rate = 0.453 (at node 172)
Average injected packet rate = 0.671645
Maximum injected packet rate = 0.737 (at node 31)
Minimum accepted packet rate = 0.404 (at node 53)
Average accepted packet rate = 0.655734
Maximum accepted packet rate = 0.73 (at node 248)
Minimum injected flit rate = 0.453 (at node 172)
Average injected flit rate = 0.671645
Maximum injected flit rate = 0.737 (at node 31)
Minimum accepted flit rate = 0.404 (at node 53)
Average accepted flit rate = 0.655734
Maximum accepted flit rate = 0.73 (at node 248)
Average injected packet length = 1
Average accepted packet length = 1
Total in-flight flits = 4098 (0 measured)
latency change    = 0.283985
throughput change = 0.0140229
0
Class 0:
Minimum packet latency = 5
Average packet latency = 59.5987
Maximum packet latency = 628
Minimum network latency = 5
Average network latency = 24.5282
Maximum network latency = 175
Slowest packet = 158224
Minimum flit latency = 5
Average flit latency = 24.5282
Maximum flit latency = 175
Slowest flit = 143879
Minimum fragmentation = 0
Average fragmentation = 0
Maximum fragmentation = 0
Minimum injected packet rate = 0.396 (at node 238)
Average injected packet rate = 0.664609
Maximum injected packet rate = 0.752 (at node 99)
Minimum accepted packet rate = 0.392 (at node 119)
Average accepted packet rate = 0.66393
Maximum accepted packet rate = 0.748 (at node 122)
Minimum injected flit rate = 0.396 (at node 238)
Average injected flit rate = 0.664609
Maximum injected flit rate = 0.752 (at node 99)
Minimum accepted flit rate = 0.392 (at node 119)
Average accepted flit rate = 0.66393
Maximum accepted flit rate = 0.748 (at node 122)
Average injected packet length = 1
Average accepted packet length = 1
Total in-flight flits = 4187 (0 measured)
latency change    = 0.45946
throughput change = 0.0123436
Warmed up ...Time used is 1500 cycles
1
Class 0:
Minimum packet latency = 5
Average packet latency = 71.6154
Maximum packet latency = 820
Minimum network latency = 5
Average network latency = 23.1863
Maximum network latency = 159
Slowest packet = 257061
Minimum flit latency = 5
Average flit latency = 24.573
Maximum flit latency = 175
Slowest flit = 238699
Minimum fragmentation = 0
Average fragmentation = 0
Maximum fragmentation = 0
Minimum injected packet rate = 0.422 (at node 9)
Average injected packet rate = 0.664391
Maximum injected packet rate = 0.746 (at node 10)
Minimum accepted packet rate = 0.414 (at node 180)
Average accepted packet rate = 0.663906
Maximum accepted packet rate = 0.742 (at node 58)
Minimum injected flit rate = 0.422 (at node 9)
Average injected flit rate = 0.664391
Maximum injected flit rate = 0.746 (at node 10)
Minimum accepted flit rate = 0.414 (at node 180)
Average accepted flit rate = 0.663906
Maximum accepted flit rate = 0.742 (at node 58)
Average injected packet length = 1
Average accepted packet length = 1
Total in-flight flits = 4249 (4249 measured)
latency change    = 0.167795
throughput change = 3.53024e-05
1
Class 0:
Minimum packet latency = 5
Average packet latency = 84.6206
Maximum packet latency = 1011
Minimum network latency = 5
Average network latency = 24.0567
Maximum network latency = 165
Slowest packet = 257061
Minimum flit latency = 5
Average flit latency = 24.7279
Maximum flit latency = 175
Slowest flit = 238699
Minimum fragmentation = 0
Average fragmentation = 0
Maximum fragmentation = 0
Minimum injected packet rate = 0.414 (at node 9)
Average injected packet rate = 0.66457
Maximum injected packet rate = 0.73 (at node 56)
Minimum accepted packet rate = 0.415 (at node 238)
Average accepted packet rate = 0.664637
Maximum accepted packet rate = 0.731 (at node 28)
Minimum injected flit rate = 0.414 (at node 9)
Average injected flit rate = 0.66457
Maximum injected flit rate = 0.73 (at node 56)
Minimum accepted flit rate = 0.415 (at node 238)
Average accepted flit rate = 0.664637
Maximum accepted flit rate = 0.731 (at node 28)
Average injected packet length = 1
Average accepted packet length = 1
Total in-flight flits = 4169 (4169 measured)
latency change    = 0.153689
throughput change = 0.00109905
1
Class 0:
Minimum packet latency = 5
Average packet latency = 94.9422
Maximum packet latency = 1254
Minimum network latency = 5
Average network latency = 24.2425
Maximum network latency = 175
Slowest packet = 257061
Minimum flit latency = 5
Average flit latency = 24.6872
Maximum flit latency = 175
Slowest flit = 238699
Minimum fragmentation = 0
Average fragmentation = 0
Maximum fragmentation = 0
Minimum injected packet rate = 0.407333 (at node 83)
Average injected packet rate = 0.664331
Maximum injected packet rate = 0.732 (at node 13)
Minimum accepted packet rate = 0.412 (at node 202)
Average accepted packet rate = 0.664221
Maximum accepted packet rate = 0.733333 (at node 176)
Minimum injected flit rate = 0.407333 (at node 83)
Average injected flit rate = 0.664331
Maximum injected flit rate = 0.732 (at node 13)
Minimum accepted flit rate = 0.412 (at node 202)
Average accepted flit rate = 0.664221
Maximum accepted flit rate = 0.733333 (at node 176)
Average injected packet length = 1
Average accepted packet length = 1
Total in-flight flits = 4222 (4222 measured)
latency change    = 0.108714
throughput change = 0.000625341
1
Class 0:
Minimum packet latency = 5
Average packet latency = 105.048
Maximum packet latency = 1431
Minimum network latency = 5
Average network latency = 24.3247
Maximum network latency = 175
Slowest packet = 257061
Minimum flit latency = 5
Average flit latency = 24.6568
Maximum flit latency = 175
Slowest flit = 238699
Minimum fragmentation = 0
Average fragmentation = 0
Maximum fragmentation = 0
Minimum injected packet rate = 0.4085 (at node 83)
Average injected packet rate = 0.665098
Maximum injected packet rate = 0.7325 (at node 21)
Minimum accepted packet rate = 0.411 (at node 202)
Average accepted packet rate = 0.664936
Maximum accepted packet rate = 0.7305 (at node 168)
Minimum injected flit rate = 0.4085 (at node 83)
Average injected flit rate = 0.665098
Maximum injected flit rate = 0.7325 (at node 21)
Minimum accepted flit rate = 0.411 (at node 202)
Average accepted flit rate = 0.664936
Maximum accepted flit rate = 0.7305 (at node 168)
Average injected packet length = 1
Average accepted packet length = 1
Total in-flight flits = 4265 (4265 measured)
latency change    = 0.0962004
throughput change = 0.00107408
1
Class 0:
Minimum packet latency = 5
Average packet latency = 114.532
Maximum packet latency = 1629
Minimum network latency = 5
Average network latency = 24.4042
Maximum network latency = 175
Slowest packet = 257061
Minimum flit latency = 5
Average flit latency = 24.669
Maximum flit latency = 175
Slowest flit = 238699
Minimum fragmentation = 0
Average fragmentation = 0
Maximum fragmentation = 0
Minimum injected packet rate = 0.412 (at node 83)
Average injected packet rate = 0.66535
Maximum injected packet rate = 0.722 (at node 56)
Minimum accepted packet rate = 0.4156 (at node 202)
Average accepted packet rate = 0.66525
Maximum accepted packet rate = 0.7228 (at node 168)
Minimum injected flit rate = 0.412 (at node 83)
Average injected flit rate = 0.66535
Maximum injected flit rate = 0.722 (at node 56)
Minimum accepted flit rate = 0.4156 (at node 202)
Average accepted flit rate = 0.66525
Maximum accepted flit rate = 0.7228 (at node 168)
Average injected packet length = 1
Average accepted packet length = 1
Total in-flight flits = 4251 (4251 measured)
latency change    = 0.0828105
throughput change = 0.000472684
1
Class 0:
Minimum packet latency = 5
Average packet latency = 124.025
Maximum packet latency = 1816
Minimum network latency = 5
Average network latency = 24.5349
Maximum network latency = 175
Slowest packet = 257061
Minimum flit latency = 5
Average flit latency = 24.7544
Maximum flit latency = 175
Slowest flit = 238699
Minimum fragmentation = 0
Average fragmentation = 0
Maximum fragmentation = 0
Minimum injected packet rate = 0.417 (at node 83)
Average injected packet rate = 0.665491
Maximum injected packet rate = 0.718333 (at node 21)
Minimum accepted packet rate = 0.417 (at node 202)
Average accepted packet rate = 0.665332
Maximum accepted packet rate = 0.719667 (at node 168)
Minimum injected flit rate = 0.417 (at node 83)
Average injected flit rate = 0.665491
Maximum injected flit rate = 0.718333 (at node 21)
Minimum accepted flit rate = 0.417 (at node 202)
Average accepted flit rate = 0.665332
Maximum accepted flit rate = 0.719667 (at node 168)
Average injected packet length = 1
Average accepted packet length = 1
Total in-flight flits = 4302 (4302 measured)
latency change    = 0.0765403
throughput change = 0.000123294
1
Class 0:
Minimum packet latency = 5
Average packet latency = 133.476
Maximum packet latency = 2010
Minimum network latency = 5
Average network latency = 24.553
Maximum network latency = 175
Slowest packet = 257061
Minimum flit latency = 5
Average flit latency = 24.7411
Maximum flit latency = 175
Slowest flit = 238699
Minimum fragmentation = 0
Average fragmentation = 0
Maximum fragmentation = 0
Minimum injected packet rate = 0.416857 (at node 83)
Average injected packet rate = 0.665467
Maximum injected packet rate = 0.717143 (at node 13)
Minimum accepted packet rate = 0.418286 (at node 202)
Average accepted packet rate = 0.665237
Maximum accepted packet rate = 0.716857 (at node 176)
Minimum injected flit rate = 0.416857 (at node 83)
Average injected flit rate = 0.665467
Maximum injected flit rate = 0.717143 (at node 13)
Minimum accepted flit rate = 0.418286 (at node 202)
Average accepted flit rate = 0.665237
Maximum accepted flit rate = 0.716857 (at node 176)
Average injected packet length = 1
Average accepted packet length = 1
Total in-flight flits = 4389 (4389 measured)
latency change    = 0.0708047
throughput change = 0.000143444
Draining all recorded packets ...
Class 0:
Remaining flits: 1001683 1001860 1002726 1002874 1003035 1003324 1003558 1003672 1003738 1003843 [...] (4173 flits)
Measured flits: 1001683 1001860 1002726 1002874 1003035 1003324 1003558 1003672 1003738 1003843 [...] (2027 flits)
Class 0:
Remaining flits: 1169293 1171038 1171652 1171709 1173363 1173426 1173671 1174156 1174224 1174322 [...] (4252 flits)
Measured flits: 1169293 1171038 1171652 1171709 1173363 1173426 1173671 1174156 1174224 1174322 [...] (735 flits)
Class 0:
Remaining flits: 1340664 1341348 1341524 1341709 1341878 1341966 1342676 1342747 1342755 1343250 [...] (4278 flits)
Measured flits: 1341966 1342676 1343561 1343742 1343852 1343915 1344024 1344048 1344346 1344868 [...] (406 flits)
Draining remaining packets ...
Time taken is 8481 cycles
====== Traffic class 0 ======
Overall minimum packet latency = 5 (1 samples)
Overall average packet latency = 250.534 (1 samples)
Overall maximum packet latency = 3373 (1 samples)
Overall minimum network latency = 5 (1 samples)
Overall average network latency = 28.9786 (1 samples)
Overall maximum network latency = 175 (1 samples)
Overall minimum flit latency = 5 (1 samples)
Overall average flit latency = 24.7919 (1 samples)
Overall maximum flit latency = 175 (1 samples)
Overall minimum fragmentation = 0 (1 samples)
Overall average fragmentation = 0 (1 samples)
Overall maximum fragmentation = 0 (1 samples)
Overall minimum injected packet rate = 0.416857 (1 samples)
Overall average injected packet rate = 0.665467 (1 samples)
Overall maximum injected packet rate = 0.717143 (1 samples)
Overall minimum accepted packet rate = 0.418286 (1 samples)
Overall average accepted packet rate = 0.665237 (1 samples)
Overall maximum accepted packet rate = 0.716857 (1 samples)
Overall minimum injected flit rate = 0.416857 (1 samples)
Overall average injected flit rate = 0.665467 (1 samples)
Overall maximum injected flit rate = 0.717143 (1 samples)
Overall minimum accepted flit rate = 0.418286 (1 samples)
Overall average accepted flit rate = 0.665237 (1 samples)
Overall maximum accepted flit rate = 0.716857 (1 samples)
Overall average injected packet size = 1 (1 samples)
Overall average accepted packet size = 1 (1 samples)
Overall average hops = 2.7452 (1 samples)
Total run time 46.8948
