BEGIN Configuration File: ./FBF-3.conf
injection_rate = 0.7;
traffic = uniform;
routing_function = valiant;
vc_buf_size = 16;
topology = flatfly;
use_noc_latency = 0;
hold_switch_for_packet=0;

c = 4;
k = 8;
n = 2;

x  = 8;
y  = 8;
xr = 2;
yr = 2;

packet_size  = 1;
num_vcs      = 2;
vc_allocator = separable_input_first; 
sw_allocator = separable_input_first;

alloc_iters   = 1;
sample_period = 500;

wait_for_tail_credit = 0;
use_read_write       = 0;

credit_delay   = 2;
routing_delay  = 0;
vc_alloc_delay = 1;
sw_alloc_delay = 1;
st_final_delay = 1;

input_speedup     = 1;
output_speedup    = 1;
internal_speedup  = 2.0;

warmup_periods = 3;
sim_count      = 1;

priority = none;
injection_rate_uses_flits=1;

END Configuration File: ./FBF-3.conf
Number of nodes: 256
Number of routers: 64
 Flat Bufferfly 
 k = 8 n = 2 c = 4
 each switch - total radix =  18
 # of switches = 64
 # of channels = 896
 # of nodes ( size of network ) = 256
0
Class 0:
Minimum packet latency = 5
Average packet latency = 20.239
Maximum packet latency = 50
Minimum network latency = 5
Average network latency = 20.239
Maximum network latency = 50
Slowest packet = 37534
Minimum flit latency = 5
Average flit latency = 20.239
Maximum flit latency = 50
Slowest flit = 37534
Minimum fragmentation = 0
Average fragmentation = 0
Maximum fragmentation = 0
Minimum injected packet rate = 0.64 (at node 172)
Average injected packet rate = 0.699727
Maximum injected packet rate = 0.752 (at node 70)
Minimum accepted packet rate = 0.58 (at node 125)
Average accepted packet rate = 0.671516
Maximum accepted packet rate = 0.774 (at node 114)
Minimum injected flit rate = 0.64 (at node 172)
Average injected flit rate = 0.699727
Maximum injected flit rate = 0.752 (at node 70)
Minimum accepted flit rate = 0.58 (at node 125)
Average accepted flit rate = 0.671516
Maximum accepted flit rate = 0.774 (at node 114)
Average injected packet length = 1
Average accepted packet length = 1
Total in-flight flits = 3611 (0 measured)
latency change    = 1
throughput change = 1
0
Class 0:
Minimum packet latency = 5
Average packet latency = 20.3143
Maximum packet latency = 50
Minimum network latency = 5
Average network latency = 20.3143
Maximum network latency = 50
Slowest packet = 37534
Minimum flit latency = 5
Average flit latency = 20.3143
Maximum flit latency = 50
Slowest flit = 37534
Minimum fragmentation = 0
Average fragmentation = 0
Maximum fragmentation = 0
Minimum injected packet rate = 0.652 (at node 172)
Average injected packet rate = 0.699313
Maximum injected packet rate = 0.736 (at node 26)
Minimum accepted packet rate = 0.613 (at node 161)
Average accepted packet rate = 0.684883
Maximum accepted packet rate = 0.749 (at node 183)
Minimum injected flit rate = 0.652 (at node 172)
Average injected flit rate = 0.699313
Maximum injected flit rate = 0.736 (at node 26)
Minimum accepted flit rate = 0.613 (at node 161)
Average accepted flit rate = 0.684883
Maximum accepted flit rate = 0.749 (at node 183)
Average injected packet length = 1
Average accepted packet length = 1
Total in-flight flits = 3694 (0 measured)
latency change    = 0.00370552
throughput change = 0.0195175
0
Class 0:
Minimum packet latency = 5
Average packet latency = 20.4201
Maximum packet latency = 47
Minimum network latency = 5
Average network latency = 20.4201
Maximum network latency = 47
Slowest packet = 201031
Minimum flit latency = 5
Average flit latency = 20.4201
Maximum flit latency = 47
Slowest flit = 201031
Minimum fragmentation = 0
Average fragmentation = 0
Maximum fragmentation = 0
Minimum injected packet rate = 0.632 (at node 57)
Average injected packet rate = 0.699133
Maximum injected packet rate = 0.754 (at node 51)
Minimum accepted packet rate = 0.614 (at node 200)
Average accepted packet rate = 0.699688
Maximum accepted packet rate = 0.81 (at node 94)
Minimum injected flit rate = 0.632 (at node 57)
Average injected flit rate = 0.699133
Maximum injected flit rate = 0.754 (at node 51)
Minimum accepted flit rate = 0.614 (at node 200)
Average accepted flit rate = 0.699688
Maximum accepted flit rate = 0.81 (at node 94)
Average injected packet length = 1
Average accepted packet length = 1
Total in-flight flits = 3623 (0 measured)
latency change    = 0.00518057
throughput change = 0.021159
Warmed up ...Time used is 1500 cycles
1
Class 0:
Minimum packet latency = 5
Average packet latency = 20.2951
Maximum packet latency = 45
Minimum network latency = 5
Average network latency = 20.2951
Maximum network latency = 45
Slowest packet = 274489
Minimum flit latency = 5
Average flit latency = 20.3529
Maximum flit latency = 45
Slowest flit = 274489
Minimum fragmentation = 0
Average fragmentation = 0
Maximum fragmentation = 0
Minimum injected packet rate = 0.652 (at node 194)
Average injected packet rate = 0.699203
Maximum injected packet rate = 0.75 (at node 115)
Minimum accepted packet rate = 0.586 (at node 129)
Average accepted packet rate = 0.698828
Maximum accepted packet rate = 0.858 (at node 244)
Minimum injected flit rate = 0.652 (at node 194)
Average injected flit rate = 0.699203
Maximum injected flit rate = 0.75 (at node 115)
Minimum accepted flit rate = 0.586 (at node 129)
Average accepted flit rate = 0.698828
Maximum accepted flit rate = 0.858 (at node 244)
Average injected packet length = 1
Average accepted packet length = 1
Total in-flight flits = 3671 (3671 measured)
latency change    = 0.0061599
throughput change = 0.00122974
1
Class 0:
Minimum packet latency = 5
Average packet latency = 20.36
Maximum packet latency = 48
Minimum network latency = 5
Average network latency = 20.36
Maximum network latency = 48
Slowest packet = 358176
Minimum flit latency = 5
Average flit latency = 20.3876
Maximum flit latency = 48
Slowest flit = 358176
Minimum fragmentation = 0
Average fragmentation = 0
Maximum fragmentation = 0
Minimum injected packet rate = 0.663 (at node 39)
Average injected packet rate = 0.698973
Maximum injected packet rate = 0.738 (at node 115)
Minimum accepted packet rate = 0.622 (at node 206)
Average accepted packet rate = 0.698895
Maximum accepted packet rate = 0.796 (at node 244)
Minimum injected flit rate = 0.663 (at node 39)
Average injected flit rate = 0.698973
Maximum injected flit rate = 0.738 (at node 115)
Minimum accepted flit rate = 0.622 (at node 206)
Average accepted flit rate = 0.698895
Maximum accepted flit rate = 0.796 (at node 244)
Average injected packet length = 1
Average accepted packet length = 1
Total in-flight flits = 3643 (3643 measured)
latency change    = 0.00318742
throughput change = 9.50161e-05
1
Class 0:
Minimum packet latency = 5
Average packet latency = 20.3594
Maximum packet latency = 49
Minimum network latency = 5
Average network latency = 20.3594
Maximum network latency = 49
Slowest packet = 441440
Minimum flit latency = 5
Average flit latency = 20.3778
Maximum flit latency = 49
Slowest flit = 441440
Minimum fragmentation = 0
Average fragmentation = 0
Maximum fragmentation = 0
Minimum injected packet rate = 0.66 (at node 146)
Average injected packet rate = 0.699326
Maximum injected packet rate = 0.736 (at node 149)
Minimum accepted packet rate = 0.640667 (at node 186)
Average accepted packet rate = 0.69907
Maximum accepted packet rate = 0.758 (at node 156)
Minimum injected flit rate = 0.66 (at node 146)
Average injected flit rate = 0.699326
Maximum injected flit rate = 0.736 (at node 149)
Minimum accepted flit rate = 0.640667 (at node 186)
Average accepted flit rate = 0.69907
Maximum accepted flit rate = 0.758 (at node 156)
Average injected packet length = 1
Average accepted packet length = 1
Total in-flight flits = 3721 (3721 measured)
latency change    = 3.04958e-05
throughput change = 0.00025145
Draining all recorded packets ...
Draining remaining packets ...
Time taken is 3068 cycles
====== Traffic class 0 ======
Overall minimum packet latency = 5 (1 samples)
Overall average packet latency = 20.3794 (1 samples)
Overall maximum packet latency = 49 (1 samples)
Overall minimum network latency = 5 (1 samples)
Overall average network latency = 20.3794 (1 samples)
Overall maximum network latency = 49 (1 samples)
Overall minimum flit latency = 5 (1 samples)
Overall average flit latency = 20.3903 (1 samples)
Overall maximum flit latency = 49 (1 samples)
Overall minimum fragmentation = 0 (1 samples)
Overall average fragmentation = 0 (1 samples)
Overall maximum fragmentation = 0 (1 samples)
Overall minimum injected packet rate = 0.66 (1 samples)
Overall average injected packet rate = 0.699326 (1 samples)
Overall maximum injected packet rate = 0.736 (1 samples)
Overall minimum accepted packet rate = 0.640667 (1 samples)
Overall average accepted packet rate = 0.69907 (1 samples)
Overall maximum accepted packet rate = 0.758 (1 samples)
Overall minimum injected flit rate = 0.66 (1 samples)
Overall average injected flit rate = 0.699326 (1 samples)
Overall maximum injected flit rate = 0.736 (1 samples)
Overall minimum accepted flit rate = 0.640667 (1 samples)
Overall average accepted flit rate = 0.69907 (1 samples)
Overall maximum accepted flit rate = 0.758 (1 samples)
Overall average injected packet size = 1 (1 samples)
Overall average accepted packet size = 1 (1 samples)
Overall average hops = 4.42152 (1 samples)
Total run time 26.1987
