BEGIN Configuration File: ./FBF-3.conf
injection_rate = 0.7;
traffic = asymmetric;
routing_function = valiant;
vc_buf_size = 16;
topology = flatfly;
use_noc_latency = 0;
hold_switch_for_packet=0;

c = 4;
k = 8;
n = 2;

x  = 8;
y  = 8;
xr = 2;
yr = 2;

packet_size  = 1;
num_vcs      = 2;
vc_allocator = separable_input_first; 
sw_allocator = separable_input_first;

alloc_iters   = 1;
sample_period = 500;

wait_for_tail_credit = 0;
use_read_write       = 0;

credit_delay   = 2;
routing_delay  = 0;
vc_alloc_delay = 1;
sw_alloc_delay = 1;
st_final_delay = 1;

input_speedup     = 1;
output_speedup    = 1;
internal_speedup  = 2.0;

warmup_periods = 3;
sim_count      = 1;

priority = none;
injection_rate_uses_flits=1;

END Configuration File: ./FBF-3.conf
Number of nodes: 256
Number of routers: 64
 Flat Bufferfly 
 k = 8 n = 2 c = 4
 each switch - total radix =  18
 # of switches = 64
 # of channels = 896
 # of nodes ( size of network ) = 256
0
Class 0:
Minimum packet latency = 5
Average packet latency = 11.357
Maximum packet latency = 29
Minimum network latency = 5
Average network latency = 11.357
Maximum network latency = 29
Slowest packet = 32563
Minimum flit latency = 5
Average flit latency = 11.357
Maximum flit latency = 29
Slowest flit = 32563
Minimum fragmentation = 0
Average fragmentation = 0
Maximum fragmentation = 0
Minimum injected packet rate = 0.64 (at node 172)
Average injected packet rate = 0.699727
Maximum injected packet rate = 0.752 (at node 70)
Minimum accepted packet rate = 0.612 (at node 18)
Average accepted packet rate = 0.683703
Maximum accepted packet rate = 0.766 (at node 189)
Minimum injected flit rate = 0.64 (at node 172)
Average injected flit rate = 0.699727
Maximum injected flit rate = 0.752 (at node 70)
Minimum accepted flit rate = 0.612 (at node 18)
Average accepted flit rate = 0.683703
Maximum accepted flit rate = 0.766 (at node 189)
Average injected packet length = 1
Average accepted packet length = 1
Total in-flight flits = 2051 (0 measured)
latency change    = 1
throughput change = 1
0
Class 0:
Minimum packet latency = 5
Average packet latency = 11.4085
Maximum packet latency = 29
Minimum network latency = 5
Average network latency = 11.4085
Maximum network latency = 29
Slowest packet = 32563
Minimum flit latency = 5
Average flit latency = 11.4085
Maximum flit latency = 29
Slowest flit = 32563
Minimum fragmentation = 0
Average fragmentation = 0
Maximum fragmentation = 0
Minimum injected packet rate = 0.652 (at node 172)
Average injected packet rate = 0.699313
Maximum injected packet rate = 0.736 (at node 26)
Minimum accepted packet rate = 0.633 (at node 22)
Average accepted packet rate = 0.691168
Maximum accepted packet rate = 0.747 (at node 81)
Minimum injected flit rate = 0.652 (at node 172)
Average injected flit rate = 0.699313
Maximum injected flit rate = 0.736 (at node 26)
Minimum accepted flit rate = 0.633 (at node 22)
Average accepted flit rate = 0.691168
Maximum accepted flit rate = 0.747 (at node 81)
Average injected packet length = 1
Average accepted packet length = 1
Total in-flight flits = 2085 (0 measured)
latency change    = 0.00451089
throughput change = 0.0108003
0
Class 0:
Minimum packet latency = 5
Average packet latency = 11.4096
Maximum packet latency = 31
Minimum network latency = 5
Average network latency = 11.4096
Maximum network latency = 31
Slowest packet = 248091
Minimum flit latency = 5
Average flit latency = 11.4096
Maximum flit latency = 31
Slowest flit = 248091
Minimum fragmentation = 0
Average fragmentation = 0
Maximum fragmentation = 0
Minimum injected packet rate = 0.632 (at node 57)
Average injected packet rate = 0.699133
Maximum injected packet rate = 0.754 (at node 51)
Minimum accepted packet rate = 0.632 (at node 171)
Average accepted packet rate = 0.699906
Maximum accepted packet rate = 0.782 (at node 201)
Minimum injected flit rate = 0.632 (at node 57)
Average injected flit rate = 0.699133
Maximum injected flit rate = 0.754 (at node 51)
Minimum accepted flit rate = 0.632 (at node 171)
Average accepted flit rate = 0.699906
Maximum accepted flit rate = 0.782 (at node 201)
Average injected packet length = 1
Average accepted packet length = 1
Total in-flight flits = 1986 (0 measured)
latency change    = 9.40193e-05
throughput change = 0.0124849
Warmed up ...Time used is 1500 cycles
1
Class 0:
Minimum packet latency = 5
Average packet latency = 11.3743
Maximum packet latency = 30
Minimum network latency = 5
Average network latency = 11.3743
Maximum network latency = 30
Slowest packet = 292521
Minimum flit latency = 5
Average flit latency = 11.4514
Maximum flit latency = 30
Slowest flit = 292521
Minimum fragmentation = 0
Average fragmentation = 0
Maximum fragmentation = 0
Minimum injected packet rate = 0.652 (at node 194)
Average injected packet rate = 0.699203
Maximum injected packet rate = 0.75 (at node 115)
Minimum accepted packet rate = 0.618 (at node 245)
Average accepted packet rate = 0.698531
Maximum accepted packet rate = 0.766 (at node 154)
Minimum injected flit rate = 0.652 (at node 194)
Average injected flit rate = 0.699203
Maximum injected flit rate = 0.75 (at node 115)
Minimum accepted flit rate = 0.618 (at node 245)
Average accepted flit rate = 0.698531
Maximum accepted flit rate = 0.766 (at node 154)
Average injected packet length = 1
Average accepted packet length = 1
Total in-flight flits = 2072 (2072 measured)
latency change    = 0.00309783
throughput change = 0.00196842
1
Class 0:
Minimum packet latency = 5
Average packet latency = 11.3831
Maximum packet latency = 30
Minimum network latency = 5
Average network latency = 11.3831
Maximum network latency = 30
Slowest packet = 292521
Minimum flit latency = 5
Average flit latency = 11.4216
Maximum flit latency = 30
Slowest flit = 292521
Minimum fragmentation = 0
Average fragmentation = 0
Maximum fragmentation = 0
Minimum injected packet rate = 0.663 (at node 39)
Average injected packet rate = 0.698973
Maximum injected packet rate = 0.738 (at node 115)
Minimum accepted packet rate = 0.643 (at node 194)
Average accepted packet rate = 0.69875
Maximum accepted packet rate = 0.755 (at node 162)
Minimum injected flit rate = 0.663 (at node 39)
Average injected flit rate = 0.698973
Maximum injected flit rate = 0.738 (at node 115)
Minimum accepted flit rate = 0.643 (at node 194)
Average accepted flit rate = 0.69875
Maximum accepted flit rate = 0.755 (at node 162)
Average injected packet length = 1
Average accepted packet length = 1
Total in-flight flits = 2043 (2043 measured)
latency change    = 0.00077057
throughput change = 0.000313059
1
Class 0:
Minimum packet latency = 5
Average packet latency = 11.3911
Maximum packet latency = 30
Minimum network latency = 5
Average network latency = 11.3911
Maximum network latency = 30
Slowest packet = 292521
Minimum flit latency = 5
Average flit latency = 11.4167
Maximum flit latency = 30
Slowest flit = 292521
Minimum fragmentation = 0
Average fragmentation = 0
Maximum fragmentation = 0
Minimum injected packet rate = 0.66 (at node 146)
Average injected packet rate = 0.699326
Maximum injected packet rate = 0.736 (at node 149)
Minimum accepted packet rate = 0.654667 (at node 84)
Average accepted packet rate = 0.699068
Maximum accepted packet rate = 0.748667 (at node 169)
Minimum injected flit rate = 0.66 (at node 146)
Average injected flit rate = 0.699326
Maximum injected flit rate = 0.736 (at node 149)
Minimum accepted flit rate = 0.654667 (at node 84)
Average accepted flit rate = 0.699068
Maximum accepted flit rate = 0.748667 (at node 169)
Average injected packet length = 1
Average accepted packet length = 1
Total in-flight flits = 2085 (2085 measured)
latency change    = 0.000705989
throughput change = 0.000454474
Draining all recorded packets ...
Draining remaining packets ...
Time taken is 3049 cycles
====== Traffic class 0 ======
Overall minimum packet latency = 5 (1 samples)
Overall average packet latency = 11.4189 (1 samples)
Overall maximum packet latency = 30 (1 samples)
Overall minimum network latency = 5 (1 samples)
Overall average network latency = 11.4189 (1 samples)
Overall maximum network latency = 30 (1 samples)
Overall minimum flit latency = 5 (1 samples)
Overall average flit latency = 11.4432 (1 samples)
Overall maximum flit latency = 30 (1 samples)
Overall minimum fragmentation = 0 (1 samples)
Overall average fragmentation = 0 (1 samples)
Overall maximum fragmentation = 0 (1 samples)
Overall minimum injected packet rate = 0.66 (1 samples)
Overall average injected packet rate = 0.699326 (1 samples)
Overall maximum injected packet rate = 0.736 (1 samples)
Overall minimum accepted packet rate = 0.654667 (1 samples)
Overall average accepted packet rate = 0.699068 (1 samples)
Overall maximum accepted packet rate = 0.748667 (1 samples)
Overall minimum injected flit rate = 0.66 (1 samples)
Overall average injected flit rate = 0.699326 (1 samples)
Overall maximum injected flit rate = 0.736 (1 samples)
Overall minimum accepted flit rate = 0.654667 (1 samples)
Overall average accepted flit rate = 0.699068 (1 samples)
Overall maximum accepted flit rate = 0.748667 (1 samples)
Overall average injected packet size = 1 (1 samples)
Overall average accepted packet size = 1 (1 samples)
Overall average hops = 2.74707 (1 samples)
Total run time 16.6192
