BEGIN Configuration File: ./FBF-3.conf
injection_rate = 0.1;
traffic = shuffle;
routing_function = ran_min;
vc_buf_size = 16;
topology = flatfly;
use_noc_latency = 0;
hold_switch_for_packet=0;

c = 4;
k = 8;
n = 2;

x  = 8;
y  = 8;
xr = 2;
yr = 2;

packet_size  = 1;
num_vcs      = 2;
vc_allocator = separable_input_first; 
sw_allocator = separable_input_first;

alloc_iters   = 1;
sample_period = 500;

wait_for_tail_credit = 0;
use_read_write       = 0;

credit_delay   = 2;
routing_delay  = 0;
vc_alloc_delay = 1;
sw_alloc_delay = 1;
st_final_delay = 1;

input_speedup     = 1;
output_speedup    = 1;
internal_speedup  = 2.0;

warmup_periods = 3;
sim_count      = 1;

priority = none;
injection_rate_uses_flits=1;

END Configuration File: ./FBF-3.conf
Number of nodes: 256
Number of routers: 64
 Flat Bufferfly 
 k = 8 n = 2 c = 4
 each switch - total radix =  18
 # of switches = 64
 # of channels = 896
 # of nodes ( size of network ) = 256
0
Class 0:
Minimum packet latency = 5
Average packet latency = 10.337
Maximum packet latency = 14
Minimum network latency = 5
Average network latency = 10.337
Maximum network latency = 14
Slowest packet = 8395
Minimum flit latency = 5
Average flit latency = 10.337
Maximum flit latency = 14
Slowest flit = 8395
Minimum fragmentation = 0
Average fragmentation = 0
Maximum fragmentation = 0
Minimum injected packet rate = 0.066 (at node 9)
Average injected packet rate = 0.0990625
Maximum injected packet rate = 0.142 (at node 220)
Minimum accepted packet rate = 0.064 (at node 18)
Average accepted packet rate = 0.0971719
Maximum accepted packet rate = 0.14 (at node 185)
Minimum injected flit rate = 0.066 (at node 9)
Average injected flit rate = 0.0990625
Maximum injected flit rate = 0.142 (at node 220)
Minimum accepted flit rate = 0.064 (at node 18)
Average accepted flit rate = 0.0971719
Maximum accepted flit rate = 0.14 (at node 185)
Average injected packet length = 1
Average accepted packet length = 1
Total in-flight flits = 242 (0 measured)
latency change    = 1
throughput change = 1
0
Class 0:
Minimum packet latency = 5
Average packet latency = 10.3341
Maximum packet latency = 14
Minimum network latency = 5
Average network latency = 10.3341
Maximum network latency = 14
Slowest packet = 8395
Minimum flit latency = 5
Average flit latency = 10.3341
Maximum flit latency = 14
Slowest flit = 8395
Minimum fragmentation = 0
Average fragmentation = 0
Maximum fragmentation = 0
Minimum injected packet rate = 0.072 (at node 166)
Average injected packet rate = 0.0991563
Maximum injected packet rate = 0.13 (at node 22)
Minimum accepted packet rate = 0.072 (at node 77)
Average accepted packet rate = 0.0980391
Maximum accepted packet rate = 0.127 (at node 44)
Minimum injected flit rate = 0.072 (at node 166)
Average injected flit rate = 0.0991563
Maximum injected flit rate = 0.13 (at node 22)
Minimum accepted flit rate = 0.072 (at node 77)
Average accepted flit rate = 0.0980391
Maximum accepted flit rate = 0.127 (at node 44)
Average injected packet length = 1
Average accepted packet length = 1
Total in-flight flits = 286 (0 measured)
latency change    = 0.000276842
throughput change = 0.00884533
0
Class 0:
Minimum packet latency = 5
Average packet latency = 10.3827
Maximum packet latency = 14
Minimum network latency = 5
Average network latency = 10.3827
Maximum network latency = 14
Slowest packet = 36192
Minimum flit latency = 5
Average flit latency = 10.3827
Maximum flit latency = 14
Slowest flit = 36192
Minimum fragmentation = 0
Average fragmentation = 0
Maximum fragmentation = 0
Minimum injected packet rate = 0.064 (at node 15)
Average injected packet rate = 0.0995859
Maximum injected packet rate = 0.142 (at node 21)
Minimum accepted packet rate = 0.062 (at node 30)
Average accepted packet rate = 0.0996953
Maximum accepted packet rate = 0.14 (at node 78)
Minimum injected flit rate = 0.064 (at node 15)
Average injected flit rate = 0.0995859
Maximum injected flit rate = 0.142 (at node 21)
Minimum accepted flit rate = 0.062 (at node 30)
Average accepted flit rate = 0.0996953
Maximum accepted flit rate = 0.14 (at node 78)
Average injected packet length = 1
Average accepted packet length = 1
Total in-flight flits = 272 (0 measured)
latency change    = 0.00468454
throughput change = 0.0166131
Warmed up ...Time used is 1500 cycles
1
Class 0:
Minimum packet latency = 5
Average packet latency = 10.348
Maximum packet latency = 13
Minimum network latency = 5
Average network latency = 10.348
Maximum network latency = 13
Slowest packet = 38518
Minimum flit latency = 5
Average flit latency = 10.3536
Maximum flit latency = 13
Slowest flit = 37903
Minimum fragmentation = 0
Average fragmentation = 0
Maximum fragmentation = 0
Minimum injected packet rate = 0.058 (at node 40)
Average injected packet rate = 0.0990859
Maximum injected packet rate = 0.15 (at node 87)
Minimum accepted packet rate = 0.06 (at node 80)
Average accepted packet rate = 0.0991563
Maximum accepted packet rate = 0.148 (at node 29)
Minimum injected flit rate = 0.058 (at node 40)
Average injected flit rate = 0.0990859
Maximum injected flit rate = 0.15 (at node 87)
Minimum accepted flit rate = 0.06 (at node 80)
Average accepted flit rate = 0.0991563
Maximum accepted flit rate = 0.148 (at node 29)
Average injected packet length = 1
Average accepted packet length = 1
Total in-flight flits = 263 (263 measured)
latency change    = 0.00335732
throughput change = 0.0054365
1
Class 0:
Minimum packet latency = 5
Average packet latency = 10.3603
Maximum packet latency = 14
Minimum network latency = 5
Average network latency = 10.3603
Maximum network latency = 14
Slowest packet = 62487
Minimum flit latency = 5
Average flit latency = 10.3629
Maximum flit latency = 14
Slowest flit = 62487
Minimum fragmentation = 0
Average fragmentation = 0
Maximum fragmentation = 0
Minimum injected packet rate = 0.072 (at node 39)
Average injected packet rate = 0.0996875
Maximum injected packet rate = 0.132 (at node 87)
Minimum accepted packet rate = 0.074 (at node 78)
Average accepted packet rate = 0.0996719
Maximum accepted packet rate = 0.13 (at node 174)
Minimum injected flit rate = 0.072 (at node 39)
Average injected flit rate = 0.0996875
Maximum injected flit rate = 0.132 (at node 87)
Minimum accepted flit rate = 0.074 (at node 78)
Average accepted flit rate = 0.0996719
Maximum accepted flit rate = 0.13 (at node 174)
Average injected packet length = 1
Average accepted packet length = 1
Total in-flight flits = 276 (276 measured)
latency change    = 0.00118689
throughput change = 0.00517322
1
Class 0:
Minimum packet latency = 5
Average packet latency = 10.3533
Maximum packet latency = 14
Minimum network latency = 5
Average network latency = 10.3533
Maximum network latency = 14
Slowest packet = 62487
Minimum flit latency = 5
Average flit latency = 10.3551
Maximum flit latency = 14
Slowest flit = 62487
Minimum fragmentation = 0
Average fragmentation = 0
Maximum fragmentation = 0
Minimum injected packet rate = 0.078 (at node 39)
Average injected packet rate = 0.100076
Maximum injected packet rate = 0.128667 (at node 87)
Minimum accepted packet rate = 0.0786667 (at node 78)
Average accepted packet rate = 0.100091
Maximum accepted packet rate = 0.128 (at node 174)
Minimum injected flit rate = 0.078 (at node 39)
Average injected flit rate = 0.100076
Maximum injected flit rate = 0.128667 (at node 87)
Minimum accepted flit rate = 0.0786667 (at node 78)
Average accepted flit rate = 0.100091
Maximum accepted flit rate = 0.128 (at node 174)
Average injected packet length = 1
Average accepted packet length = 1
Total in-flight flits = 266 (266 measured)
latency change    = 0.000671969
throughput change = 0.00418889
Draining all recorded packets ...
Draining remaining packets ...
Time taken is 3029 cycles
====== Traffic class 0 ======
Overall minimum packet latency = 5 (1 samples)
Overall average packet latency = 10.3553 (1 samples)
Overall maximum packet latency = 14 (1 samples)
Overall minimum network latency = 5 (1 samples)
Overall average network latency = 10.3553 (1 samples)
Overall maximum network latency = 14 (1 samples)
Overall minimum flit latency = 5 (1 samples)
Overall average flit latency = 10.3573 (1 samples)
Overall maximum flit latency = 14 (1 samples)
Overall minimum fragmentation = 0 (1 samples)
Overall average fragmentation = 0 (1 samples)
Overall maximum fragmentation = 0 (1 samples)
Overall minimum injected packet rate = 0.078 (1 samples)
Overall average injected packet rate = 0.100076 (1 samples)
Overall maximum injected packet rate = 0.128667 (1 samples)
Overall minimum accepted packet rate = 0.0786667 (1 samples)
Overall average accepted packet rate = 0.100091 (1 samples)
Overall maximum accepted packet rate = 0.128 (1 samples)
Overall minimum injected flit rate = 0.078 (1 samples)
Overall average injected flit rate = 0.100076 (1 samples)
Overall maximum injected flit rate = 0.128667 (1 samples)
Overall minimum accepted flit rate = 0.0786667 (1 samples)
Overall average accepted flit rate = 0.100091 (1 samples)
Overall maximum accepted flit rate = 0.128 (1 samples)
Overall average injected packet size = 1 (1 samples)
Overall average accepted packet size = 1 (1 samples)
Overall average hops = 2.74959 (1 samples)
Total run time 3.85479
