BEGIN Configuration File: ./FBF-3.conf
injection_rate = 0.3;
traffic = shuffle;
routing_function = adaptive_xyyx;
vc_buf_size = 16;
topology = flatfly;
use_noc_latency = 0;
hold_switch_for_packet=0;

c = 4;
k = 8;
n = 2;

x  = 8;
y  = 8;
xr = 2;
yr = 2;

packet_size  = 1;
num_vcs      = 2;
vc_allocator = separable_input_first; 
sw_allocator = separable_input_first;

alloc_iters   = 1;
sample_period = 500;

wait_for_tail_credit = 0;
use_read_write       = 0;

credit_delay   = 2;
routing_delay  = 0;
vc_alloc_delay = 1;
sw_alloc_delay = 1;
st_final_delay = 1;

input_speedup     = 1;
output_speedup    = 1;
internal_speedup  = 2.0;

warmup_periods = 3;
sim_count      = 1;

priority = none;
injection_rate_uses_flits=1;

END Configuration File: ./FBF-3.conf
Number of nodes: 256
Number of routers: 64
 Flat Bufferfly 
 k = 8 n = 2 c = 4
 each switch - total radix =  18
 # of switches = 64
 # of channels = 896
 # of nodes ( size of network ) = 256
0
Class 0:
Minimum packet latency = 5
Average packet latency = 11.4198
Maximum packet latency = 23
Minimum network latency = 5
Average network latency = 11.4198
Maximum network latency = 23
Slowest packet = 22658
Minimum flit latency = 5
Average flit latency = 11.4198
Maximum flit latency = 23
Slowest flit = 22658
Minimum fragmentation = 0
Average fragmentation = 0
Maximum fragmentation = 0
Minimum injected packet rate = 0.238 (at node 172)
Average injected packet rate = 0.299031
Maximum injected packet rate = 0.348 (at node 22)
Minimum accepted packet rate = 0.236 (at node 89)
Average accepted packet rate = 0.292305
Maximum accepted packet rate = 0.348 (at node 223)
Minimum injected flit rate = 0.238 (at node 172)
Average injected flit rate = 0.299031
Maximum injected flit rate = 0.348 (at node 22)
Minimum accepted flit rate = 0.236 (at node 89)
Average accepted flit rate = 0.292305
Maximum accepted flit rate = 0.348 (at node 223)
Average injected packet length = 1
Average accepted packet length = 1
Total in-flight flits = 861 (0 measured)
latency change    = 1
throughput change = 1
0
Class 0:
Minimum packet latency = 5
Average packet latency = 11.4344
Maximum packet latency = 23
Minimum network latency = 5
Average network latency = 11.4344
Maximum network latency = 23
Slowest packet = 22658
Minimum flit latency = 5
Average flit latency = 11.4344
Maximum flit latency = 23
Slowest flit = 22658
Minimum fragmentation = 0
Average fragmentation = 0
Maximum fragmentation = 0
Minimum injected packet rate = 0.262 (at node 203)
Average injected packet rate = 0.299043
Maximum injected packet rate = 0.337 (at node 223)
Minimum accepted packet rate = 0.257 (at node 151)
Average accepted packet rate = 0.295426
Maximum accepted packet rate = 0.336 (at node 191)
Minimum injected flit rate = 0.262 (at node 203)
Average injected flit rate = 0.299043
Maximum injected flit rate = 0.337 (at node 223)
Minimum accepted flit rate = 0.257 (at node 151)
Average accepted flit rate = 0.295426
Maximum accepted flit rate = 0.336 (at node 191)
Average injected packet length = 1
Average accepted packet length = 1
Total in-flight flits = 926 (0 measured)
latency change    = 0.00127034
throughput change = 0.0105647
0
Class 0:
Minimum packet latency = 5
Average packet latency = 11.4603
Maximum packet latency = 24
Minimum network latency = 5
Average network latency = 11.4603
Maximum network latency = 24
Slowest packet = 102995
Minimum flit latency = 5
Average flit latency = 11.4603
Maximum flit latency = 24
Slowest flit = 102995
Minimum fragmentation = 0
Average fragmentation = 0
Maximum fragmentation = 0
Minimum injected packet rate = 0.238 (at node 29)
Average injected packet rate = 0.298266
Maximum injected packet rate = 0.358 (at node 23)
Minimum accepted packet rate = 0.236 (at node 58)
Average accepted packet rate = 0.298961
Maximum accepted packet rate = 0.358 (at node 46)
Minimum injected flit rate = 0.238 (at node 29)
Average injected flit rate = 0.298266
Maximum injected flit rate = 0.358 (at node 23)
Minimum accepted flit rate = 0.236 (at node 58)
Average accepted flit rate = 0.298961
Maximum accepted flit rate = 0.358 (at node 46)
Average injected packet length = 1
Average accepted packet length = 1
Total in-flight flits = 837 (0 measured)
latency change    = 0.00226075
throughput change = 0.0118248
Warmed up ...Time used is 1500 cycles
1
Class 0:
Minimum packet latency = 5
Average packet latency = 11.4798
Maximum packet latency = 25
Minimum network latency = 5
Average network latency = 11.4798
Maximum network latency = 25
Slowest packet = 120147
Minimum flit latency = 5
Average flit latency = 11.485
Maximum flit latency = 25
Slowest flit = 120147
Minimum fragmentation = 0
Average fragmentation = 0
Maximum fragmentation = 0
Minimum injected packet rate = 0.246 (at node 138)
Average injected packet rate = 0.300984
Maximum injected packet rate = 0.358 (at node 142)
Minimum accepted packet rate = 0.25 (at node 21)
Average accepted packet rate = 0.300461
Maximum accepted packet rate = 0.356 (at node 29)
Minimum injected flit rate = 0.246 (at node 138)
Average injected flit rate = 0.300984
Maximum injected flit rate = 0.358 (at node 142)
Minimum accepted flit rate = 0.25 (at node 21)
Average accepted flit rate = 0.300461
Maximum accepted flit rate = 0.356 (at node 29)
Average injected packet length = 1
Average accepted packet length = 1
Total in-flight flits = 904 (904 measured)
latency change    = 0.0016992
throughput change = 0.00499233
1
Class 0:
Minimum packet latency = 5
Average packet latency = 11.4847
Maximum packet latency = 25
Minimum network latency = 5
Average network latency = 11.4847
Maximum network latency = 25
Slowest packet = 120147
Minimum flit latency = 5
Average flit latency = 11.4873
Maximum flit latency = 25
Slowest flit = 120147
Minimum fragmentation = 0
Average fragmentation = 0
Maximum fragmentation = 0
Minimum injected packet rate = 0.266 (at node 138)
Average injected packet rate = 0.300621
Maximum injected packet rate = 0.334 (at node 30)
Minimum accepted packet rate = 0.266 (at node 21)
Average accepted packet rate = 0.300383
Maximum accepted packet rate = 0.337 (at node 129)
Minimum injected flit rate = 0.266 (at node 138)
Average injected flit rate = 0.300621
Maximum injected flit rate = 0.334 (at node 30)
Minimum accepted flit rate = 0.266 (at node 21)
Average accepted flit rate = 0.300383
Maximum accepted flit rate = 0.337 (at node 129)
Average injected packet length = 1
Average accepted packet length = 1
Total in-flight flits = 898 (898 measured)
latency change    = 0.000430463
throughput change = 0.000260085
1
Class 0:
Minimum packet latency = 5
Average packet latency = 11.478
Maximum packet latency = 25
Minimum network latency = 5
Average network latency = 11.478
Maximum network latency = 25
Slowest packet = 120147
Minimum flit latency = 5
Average flit latency = 11.4797
Maximum flit latency = 25
Slowest flit = 120147
Minimum fragmentation = 0
Average fragmentation = 0
Maximum fragmentation = 0
Minimum injected packet rate = 0.268 (at node 39)
Average injected packet rate = 0.300388
Maximum injected packet rate = 0.336 (at node 142)
Minimum accepted packet rate = 0.268 (at node 78)
Average accepted packet rate = 0.300161
Maximum accepted packet rate = 0.334667 (at node 29)
Minimum injected flit rate = 0.268 (at node 39)
Average injected flit rate = 0.300388
Maximum injected flit rate = 0.336 (at node 142)
Minimum accepted flit rate = 0.268 (at node 78)
Average accepted flit rate = 0.300161
Maximum accepted flit rate = 0.334667 (at node 29)
Average injected packet length = 1
Average accepted packet length = 1
Total in-flight flits = 924 (924 measured)
latency change    = 0.000586776
throughput change = 0.00073745
Draining all recorded packets ...
Draining remaining packets ...
Time taken is 3038 cycles
====== Traffic class 0 ======
Overall minimum packet latency = 5 (1 samples)
Overall average packet latency = 11.4838 (1 samples)
Overall maximum packet latency = 25 (1 samples)
Overall minimum network latency = 5 (1 samples)
Overall average network latency = 11.4838 (1 samples)
Overall maximum network latency = 25 (1 samples)
Overall minimum flit latency = 5 (1 samples)
Overall average flit latency = 11.4848 (1 samples)
Overall maximum flit latency = 25 (1 samples)
Overall minimum fragmentation = 0 (1 samples)
Overall average fragmentation = 0 (1 samples)
Overall maximum fragmentation = 0 (1 samples)
Overall minimum injected packet rate = 0.268 (1 samples)
Overall average injected packet rate = 0.300388 (1 samples)
Overall maximum injected packet rate = 0.336 (1 samples)
Overall minimum accepted packet rate = 0.268 (1 samples)
Overall average accepted packet rate = 0.300161 (1 samples)
Overall maximum accepted packet rate = 0.334667 (1 samples)
Overall minimum injected flit rate = 0.268 (1 samples)
Overall average injected flit rate = 0.300388 (1 samples)
Overall maximum injected flit rate = 0.336 (1 samples)
Overall minimum accepted flit rate = 0.268 (1 samples)
Overall average accepted flit rate = 0.300161 (1 samples)
Overall maximum accepted flit rate = 0.334667 (1 samples)
Overall average injected packet size = 1 (1 samples)
Overall average accepted packet size = 1 (1 samples)
Overall average hops = 2.75015 (1 samples)
Total run time 7.90573
