BEGIN Configuration File: ./FBF-3.conf
injection_rate = 0.1;
traffic = asymmetric;
routing_function = ugal;
vc_buf_size = 16;
topology = flatfly;
use_noc_latency = 0;
hold_switch_for_packet=0;

c = 4;
k = 8;
n = 2;

x  = 8;
y  = 8;
xr = 2;
yr = 2;

packet_size  = 1;
num_vcs      = 2;
vc_allocator = separable_input_first; 
sw_allocator = separable_input_first;

alloc_iters   = 1;
sample_period = 500;

wait_for_tail_credit = 0;
use_read_write       = 0;

credit_delay   = 2;
routing_delay  = 0;
vc_alloc_delay = 1;
sw_alloc_delay = 1;
st_final_delay = 1;

input_speedup     = 1;
output_speedup    = 1;
internal_speedup  = 2.0;

warmup_periods = 3;
sim_count      = 1;

priority = none;
injection_rate_uses_flits=1;

END Configuration File: ./FBF-3.conf
Number of nodes: 256
Number of routers: 64
 Flat Bufferfly 
 k = 8 n = 2 c = 4
 each switch - total radix =  18
 # of switches = 64
 # of channels = 896
 # of nodes ( size of network ) = 256
0
Class 0:
Minimum packet latency = 5
Average packet latency = 6.66265
Maximum packet latency = 12
Minimum network latency = 5
Average network latency = 6.66265
Maximum network latency = 12
Slowest packet = 944
Minimum flit latency = 5
Average flit latency = 6.66265
Maximum flit latency = 12
Slowest flit = 944
Minimum fragmentation = 0
Average fragmentation = 0
Maximum fragmentation = 0
Minimum injected packet rate = 0.066 (at node 9)
Average injected packet rate = 0.0990625
Maximum injected packet rate = 0.142 (at node 220)
Minimum accepted packet rate = 0.064 (at node 119)
Average accepted packet rate = 0.0979141
Maximum accepted packet rate = 0.136 (at node 102)
Minimum injected flit rate = 0.066 (at node 9)
Average injected flit rate = 0.0990625
Maximum injected flit rate = 0.142 (at node 220)
Minimum accepted flit rate = 0.064 (at node 119)
Average accepted flit rate = 0.0979141
Maximum accepted flit rate = 0.136 (at node 102)
Average injected packet length = 1
Average accepted packet length = 1
Total in-flight flits = 147 (0 measured)
latency change    = 1
throughput change = 1
0
Class 0:
Minimum packet latency = 5
Average packet latency = 6.67184
Maximum packet latency = 12
Minimum network latency = 5
Average network latency = 6.67184
Maximum network latency = 12
Slowest packet = 944
Minimum flit latency = 5
Average flit latency = 6.67184
Maximum flit latency = 12
Slowest flit = 944
Minimum fragmentation = 0
Average fragmentation = 0
Maximum fragmentation = 0
Minimum injected packet rate = 0.072 (at node 166)
Average injected packet rate = 0.0991563
Maximum injected packet rate = 0.13 (at node 22)
Minimum accepted packet rate = 0.07 (at node 53)
Average accepted packet rate = 0.0983828
Maximum accepted packet rate = 0.127 (at node 0)
Minimum injected flit rate = 0.072 (at node 166)
Average injected flit rate = 0.0991563
Maximum injected flit rate = 0.13 (at node 22)
Minimum accepted flit rate = 0.07 (at node 53)
Average accepted flit rate = 0.0983828
Maximum accepted flit rate = 0.127 (at node 0)
Average injected packet length = 1
Average accepted packet length = 1
Total in-flight flits = 198 (0 measured)
latency change    = 0.00137757
throughput change = 0.00476455
0
Class 0:
Minimum packet latency = 5
Average packet latency = 6.70258
Maximum packet latency = 12
Minimum network latency = 5
Average network latency = 6.70258
Maximum network latency = 12
Slowest packet = 25253
Minimum flit latency = 5
Average flit latency = 6.70258
Maximum flit latency = 12
Slowest flit = 25253
Minimum fragmentation = 0
Average fragmentation = 0
Maximum fragmentation = 0
Minimum injected packet rate = 0.064 (at node 15)
Average injected packet rate = 0.0995859
Maximum injected packet rate = 0.142 (at node 21)
Minimum accepted packet rate = 0.05 (at node 29)
Average accepted packet rate = 0.0997891
Maximum accepted packet rate = 0.142 (at node 21)
Minimum injected flit rate = 0.064 (at node 15)
Average injected flit rate = 0.0995859
Maximum injected flit rate = 0.142 (at node 21)
Minimum accepted flit rate = 0.05 (at node 29)
Average accepted flit rate = 0.0997891
Maximum accepted flit rate = 0.142 (at node 21)
Average injected packet length = 1
Average accepted packet length = 1
Total in-flight flits = 172 (0 measured)
latency change    = 0.00458544
throughput change = 0.0140922
Warmed up ...Time used is 1500 cycles
1
Class 0:
Minimum packet latency = 5
Average packet latency = 6.67878
Maximum packet latency = 13
Minimum network latency = 5
Average network latency = 6.67878
Maximum network latency = 13
Slowest packet = 45829
Minimum flit latency = 5
Average flit latency = 6.68541
Maximum flit latency = 13
Slowest flit = 45829
Minimum fragmentation = 0
Average fragmentation = 0
Maximum fragmentation = 0
Minimum injected packet rate = 0.058 (at node 40)
Average injected packet rate = 0.0990859
Maximum injected packet rate = 0.15 (at node 87)
Minimum accepted packet rate = 0.064 (at node 40)
Average accepted packet rate = 0.0991875
Maximum accepted packet rate = 0.146 (at node 14)
Minimum injected flit rate = 0.058 (at node 40)
Average injected flit rate = 0.0990859
Maximum injected flit rate = 0.15 (at node 87)
Minimum accepted flit rate = 0.064 (at node 40)
Average accepted flit rate = 0.0991875
Maximum accepted flit rate = 0.146 (at node 14)
Average injected packet length = 1
Average accepted packet length = 1
Total in-flight flits = 159 (159 measured)
latency change    = 0.00356338
throughput change = 0.0060649
1
Class 0:
Minimum packet latency = 5
Average packet latency = 6.6912
Maximum packet latency = 14
Minimum network latency = 5
Average network latency = 6.6912
Maximum network latency = 14
Slowest packet = 54528
Minimum flit latency = 5
Average flit latency = 6.69442
Maximum flit latency = 14
Slowest flit = 54528
Minimum fragmentation = 0
Average fragmentation = 0
Maximum fragmentation = 0
Minimum injected packet rate = 0.072 (at node 39)
Average injected packet rate = 0.0996875
Maximum injected packet rate = 0.132 (at node 87)
Minimum accepted packet rate = 0.074 (at node 114)
Average accepted packet rate = 0.099707
Maximum accepted packet rate = 0.13 (at node 73)
Minimum injected flit rate = 0.072 (at node 39)
Average injected flit rate = 0.0996875
Maximum injected flit rate = 0.132 (at node 87)
Minimum accepted flit rate = 0.074 (at node 114)
Average accepted flit rate = 0.099707
Maximum accepted flit rate = 0.13 (at node 73)
Average injected packet length = 1
Average accepted packet length = 1
Total in-flight flits = 167 (167 measured)
latency change    = 0.00185669
throughput change = 0.00521058
1
Class 0:
Minimum packet latency = 5
Average packet latency = 6.70433
Maximum packet latency = 14
Minimum network latency = 5
Average network latency = 6.70433
Maximum network latency = 14
Slowest packet = 54528
Minimum flit latency = 5
Average flit latency = 6.7064
Maximum flit latency = 14
Slowest flit = 54528
Minimum fragmentation = 0
Average fragmentation = 0
Maximum fragmentation = 0
Minimum injected packet rate = 0.078 (at node 39)
Average injected packet rate = 0.100076
Maximum injected packet rate = 0.128667 (at node 87)
Minimum accepted packet rate = 0.0753333 (at node 114)
Average accepted packet rate = 0.100115
Maximum accepted packet rate = 0.123333 (at node 14)
Minimum injected flit rate = 0.078 (at node 39)
Average injected flit rate = 0.100076
Maximum injected flit rate = 0.128667 (at node 87)
Minimum accepted flit rate = 0.0753333 (at node 114)
Average accepted flit rate = 0.100115
Maximum accepted flit rate = 0.123333 (at node 14)
Average injected packet length = 1
Average accepted packet length = 1
Total in-flight flits = 157 (157 measured)
latency change    = 0.00195794
throughput change = 0.00407086
Draining all recorded packets ...
Draining remaining packets ...
Time taken is 3024 cycles
====== Traffic class 0 ======
Overall minimum packet latency = 5 (1 samples)
Overall average packet latency = 6.70626 (1 samples)
Overall maximum packet latency = 14 (1 samples)
Overall minimum network latency = 5 (1 samples)
Overall average network latency = 6.70626 (1 samples)
Overall maximum network latency = 14 (1 samples)
Overall minimum flit latency = 5 (1 samples)
Overall average flit latency = 6.70822 (1 samples)
Overall maximum flit latency = 14 (1 samples)
Overall minimum fragmentation = 0 (1 samples)
Overall average fragmentation = 0 (1 samples)
Overall maximum fragmentation = 0 (1 samples)
Overall minimum injected packet rate = 0.078 (1 samples)
Overall average injected packet rate = 0.100076 (1 samples)
Overall maximum injected packet rate = 0.128667 (1 samples)
Overall minimum accepted packet rate = 0.0753333 (1 samples)
Overall average accepted packet rate = 0.100115 (1 samples)
Overall maximum accepted packet rate = 0.123333 (1 samples)
Overall minimum injected flit rate = 0.078 (1 samples)
Overall average injected flit rate = 0.100076 (1 samples)
Overall maximum injected flit rate = 0.128667 (1 samples)
Overall minimum accepted flit rate = 0.0753333 (1 samples)
Overall average accepted flit rate = 0.100115 (1 samples)
Overall maximum accepted flit rate = 0.123333 (1 samples)
Overall average injected packet size = 1 (1 samples)
Overall average accepted packet size = 1 (1 samples)
Overall average hops = 1.54501 (1 samples)
Total run time 2.88852
