BEGIN Configuration File: ./FBF-3.conf
injection_rate = 0.5;
traffic = shuffle;
routing_function = ran_min;
vc_buf_size = 16;
topology = flatfly;
use_noc_latency = 0;
hold_switch_for_packet=0;

c = 4;
k = 8;
n = 2;

x  = 8;
y  = 8;
xr = 2;
yr = 2;

packet_size  = 1;
num_vcs      = 2;
vc_allocator = separable_input_first; 
sw_allocator = separable_input_first;

alloc_iters   = 1;
sample_period = 500;

wait_for_tail_credit = 0;
use_read_write       = 0;

credit_delay   = 2;
routing_delay  = 0;
vc_alloc_delay = 1;
sw_alloc_delay = 1;
st_final_delay = 1;

input_speedup     = 1;
output_speedup    = 1;
internal_speedup  = 2.0;

warmup_periods = 3;
sim_count      = 1;

priority = none;
injection_rate_uses_flits=1;

END Configuration File: ./FBF-3.conf
Number of nodes: 256
Number of routers: 64
 Flat Bufferfly 
 k = 8 n = 2 c = 4
 each switch - total radix =  18
 # of switches = 64
 # of channels = 896
 # of nodes ( size of network ) = 256
0
Class 0:
Minimum packet latency = 5
Average packet latency = 20.6939
Maximum packet latency = 69
Minimum network latency = 5
Average network latency = 20.6939
Maximum network latency = 69
Slowest packet = 53593
Minimum flit latency = 5
Average flit latency = 20.6939
Maximum flit latency = 69
Slowest flit = 53593
Minimum fragmentation = 0
Average fragmentation = 0
Maximum fragmentation = 0
Minimum injected packet rate = 0.426 (at node 110)
Average injected packet rate = 0.499609
Maximum injected packet rate = 0.562 (at node 22)
Minimum accepted packet rate = 0.414 (at node 220)
Average accepted packet rate = 0.473031
Maximum accepted packet rate = 0.526 (at node 235)
Minimum injected flit rate = 0.426 (at node 110)
Average injected flit rate = 0.499609
Maximum injected flit rate = 0.562 (at node 22)
Minimum accepted flit rate = 0.414 (at node 220)
Average accepted flit rate = 0.473031
Maximum accepted flit rate = 0.526 (at node 235)
Average injected packet length = 1
Average accepted packet length = 1
Total in-flight flits = 3402 (0 measured)
latency change    = 1
throughput change = 1
0
Class 0:
Minimum packet latency = 5
Average packet latency = 25.7013
Maximum packet latency = 91
Minimum network latency = 5
Average network latency = 25.7013
Maximum network latency = 91
Slowest packet = 105606
Minimum flit latency = 5
Average flit latency = 25.7013
Maximum flit latency = 91
Slowest flit = 105606
Minimum fragmentation = 0
Average fragmentation = 0
Maximum fragmentation = 0
Minimum injected packet rate = 0.449 (at node 173)
Average injected packet rate = 0.499969
Maximum injected packet rate = 0.539 (at node 74)
Minimum accepted packet rate = 0.438 (at node 91)
Average accepted packet rate = 0.483129
Maximum accepted packet rate = 0.517 (at node 123)
Minimum injected flit rate = 0.449 (at node 173)
Average injected flit rate = 0.499969
Maximum injected flit rate = 0.539 (at node 74)
Minimum accepted flit rate = 0.438 (at node 91)
Average accepted flit rate = 0.483129
Maximum accepted flit rate = 0.517 (at node 123)
Average injected packet length = 1
Average accepted packet length = 1
Total in-flight flits = 4311 (0 measured)
latency change    = 0.19483
throughput change = 0.0209005
0
Class 0:
Minimum packet latency = 5
Average packet latency = 35.7852
Maximum packet latency = 111
Minimum network latency = 5
Average network latency = 35.7784
Maximum network latency = 111
Slowest packet = 164025
Minimum flit latency = 5
Average flit latency = 35.7784
Maximum flit latency = 111
Slowest flit = 164025
Minimum fragmentation = 0
Average fragmentation = 0
Maximum fragmentation = 0
Minimum injected packet rate = 0.454 (at node 179)
Average injected packet rate = 0.500031
Maximum injected packet rate = 0.556 (at node 49)
Minimum accepted packet rate = 0.448 (at node 66)
Average accepted packet rate = 0.495422
Maximum accepted packet rate = 0.54 (at node 64)
Minimum injected flit rate = 0.454 (at node 179)
Average injected flit rate = 0.500031
Maximum injected flit rate = 0.556 (at node 49)
Minimum accepted flit rate = 0.448 (at node 66)
Average accepted flit rate = 0.495422
Maximum accepted flit rate = 0.54 (at node 64)
Average injected packet length = 1
Average accepted packet length = 1
Total in-flight flits = 4903 (0 measured)
latency change    = 0.281791
throughput change = 0.0248131
Warmed up ...Time used is 1500 cycles
1
Class 0:
Minimum packet latency = 5
Average packet latency = 40.5197
Maximum packet latency = 161
Minimum network latency = 5
Average network latency = 40.262
Maximum network latency = 131
Slowest packet = 195195
Minimum flit latency = 5
Average flit latency = 40.9507
Maximum flit latency = 131
Slowest flit = 216515
Minimum fragmentation = 0
Average fragmentation = 0
Maximum fragmentation = 0
Minimum injected packet rate = 0.446 (at node 88)
Average injected packet rate = 0.50082
Maximum injected packet rate = 0.564 (at node 254)
Minimum accepted packet rate = 0.434 (at node 176)
Average accepted packet rate = 0.495211
Maximum accepted packet rate = 0.528 (at node 217)
Minimum injected flit rate = 0.446 (at node 88)
Average injected flit rate = 0.50082
Maximum injected flit rate = 0.564 (at node 254)
Minimum accepted flit rate = 0.434 (at node 176)
Average accepted flit rate = 0.495211
Maximum accepted flit rate = 0.528 (at node 217)
Average injected packet length = 1
Average accepted packet length = 1
Total in-flight flits = 5621 (5621 measured)
latency change    = 0.116843
throughput change = 0.000425955
1
Class 0:
Minimum packet latency = 5
Average packet latency = 43.8178
Maximum packet latency = 171
Minimum network latency = 5
Average network latency = 43.3607
Maximum network latency = 131
Slowest packet = 195195
Minimum flit latency = 5
Average flit latency = 43.5851
Maximum flit latency = 131
Slowest flit = 216515
Minimum fragmentation = 0
Average fragmentation = 0
Maximum fragmentation = 0
Minimum injected packet rate = 0.458 (at node 224)
Average injected packet rate = 0.500141
Maximum injected packet rate = 0.547 (at node 223)
Minimum accepted packet rate = 0.458 (at node 176)
Average accepted packet rate = 0.495402
Maximum accepted packet rate = 0.53 (at node 0)
Minimum injected flit rate = 0.458 (at node 224)
Average injected flit rate = 0.500141
Maximum injected flit rate = 0.547 (at node 223)
Minimum accepted flit rate = 0.458 (at node 176)
Average accepted flit rate = 0.495402
Maximum accepted flit rate = 0.53 (at node 0)
Average injected packet length = 1
Average accepted packet length = 1
Total in-flight flits = 6119 (6119 measured)
latency change    = 0.07527
throughput change = 0.000386365
1
Class 0:
Minimum packet latency = 5
Average packet latency = 46.2358
Maximum packet latency = 205
Minimum network latency = 5
Average network latency = 45.3053
Maximum network latency = 141
Slowest packet = 195195
Minimum flit latency = 5
Average flit latency = 45.4047
Maximum flit latency = 141
Slowest flit = 307283
Minimum fragmentation = 0
Average fragmentation = 0
Maximum fragmentation = 0
Minimum injected packet rate = 0.469333 (at node 91)
Average injected packet rate = 0.499823
Maximum injected packet rate = 0.530667 (at node 19)
Minimum accepted packet rate = 0.465333 (at node 132)
Average accepted packet rate = 0.495747
Maximum accepted packet rate = 0.525333 (at node 0)
Minimum injected flit rate = 0.469333 (at node 91)
Average injected flit rate = 0.499823
Maximum injected flit rate = 0.530667 (at node 19)
Minimum accepted flit rate = 0.465333 (at node 132)
Average accepted flit rate = 0.495747
Maximum accepted flit rate = 0.525333 (at node 0)
Average injected packet length = 1
Average accepted packet length = 1
Total in-flight flits = 6475 (6475 measured)
latency change    = 0.0522964
throughput change = 0.000696024
1
Class 0:
Minimum packet latency = 5
Average packet latency = 48.5542
Maximum packet latency = 220
Minimum network latency = 5
Average network latency = 47.0565
Maximum network latency = 141
Slowest packet = 195195
Minimum flit latency = 5
Average flit latency = 47.0973
Maximum flit latency = 141
Slowest flit = 307283
Minimum fragmentation = 0
Average fragmentation = 0
Maximum fragmentation = 0
Minimum injected packet rate = 0.4655 (at node 224)
Average injected packet rate = 0.499717
Maximum injected packet rate = 0.5245 (at node 18)
Minimum accepted packet rate = 0.465 (at node 174)
Average accepted packet rate = 0.495666
Maximum accepted packet rate = 0.5175 (at node 0)
Minimum injected flit rate = 0.4655 (at node 224)
Average injected flit rate = 0.499717
Maximum injected flit rate = 0.5245 (at node 18)
Minimum accepted flit rate = 0.465 (at node 174)
Average accepted flit rate = 0.495666
Maximum accepted flit rate = 0.5175 (at node 0)
Average injected packet length = 1
Average accepted packet length = 1
Total in-flight flits = 6990 (6990 measured)
latency change    = 0.0477487
throughput change = 0.000164184
1
Class 0:
Minimum packet latency = 5
Average packet latency = 50.85
Maximum packet latency = 233
Minimum network latency = 5
Average network latency = 48.6069
Maximum network latency = 143
Slowest packet = 195195
Minimum flit latency = 5
Average flit latency = 48.6155
Maximum flit latency = 143
Slowest flit = 489476
Minimum fragmentation = 0
Average fragmentation = 0
Maximum fragmentation = 0
Minimum injected packet rate = 0.4724 (at node 91)
Average injected packet rate = 0.499322
Maximum injected packet rate = 0.524 (at node 36)
Minimum accepted packet rate = 0.4716 (at node 174)
Average accepted packet rate = 0.495897
Maximum accepted packet rate = 0.514 (at node 0)
Minimum injected flit rate = 0.4724 (at node 91)
Average injected flit rate = 0.499322
Maximum injected flit rate = 0.524 (at node 36)
Minimum accepted flit rate = 0.4716 (at node 174)
Average accepted flit rate = 0.495897
Maximum accepted flit rate = 0.514 (at node 0)
Average injected packet length = 1
Average accepted packet length = 1
Total in-flight flits = 7107 (7107 measured)
latency change    = 0.0451479
throughput change = 0.000465539
1
Class 0:
Minimum packet latency = 5
Average packet latency = 52.9953
Maximum packet latency = 242
Minimum network latency = 5
Average network latency = 50.0512
Maximum network latency = 143
Slowest packet = 195195
Minimum flit latency = 5
Average flit latency = 50.0398
Maximum flit latency = 143
Slowest flit = 489476
Minimum fragmentation = 0
Average fragmentation = 0
Maximum fragmentation = 0
Minimum injected packet rate = 0.475 (at node 224)
Average injected packet rate = 0.499098
Maximum injected packet rate = 0.521 (at node 36)
Minimum accepted packet rate = 0.477 (at node 193)
Average accepted packet rate = 0.495827
Maximum accepted packet rate = 0.516 (at node 94)
Minimum injected flit rate = 0.475 (at node 224)
Average injected flit rate = 0.499098
Maximum injected flit rate = 0.521 (at node 36)
Minimum accepted flit rate = 0.477 (at node 193)
Average accepted flit rate = 0.495827
Maximum accepted flit rate = 0.516 (at node 94)
Average injected packet length = 1
Average accepted packet length = 1
Total in-flight flits = 7431 (7431 measured)
latency change    = 0.0404821
throughput change = 0.000141283
Draining all recorded packets ...
Draining remaining packets ...
Time taken is 4870 cycles
====== Traffic class 0 ======
Overall minimum packet latency = 5 (1 samples)
Overall average packet latency = 53.9477 (1 samples)
Overall maximum packet latency = 259 (1 samples)
Overall minimum network latency = 5 (1 samples)
Overall average network latency = 50.6602 (1 samples)
Overall maximum network latency = 143 (1 samples)
Overall minimum flit latency = 5 (1 samples)
Overall average flit latency = 51.1494 (1 samples)
Overall maximum flit latency = 143 (1 samples)
Overall minimum fragmentation = 0 (1 samples)
Overall average fragmentation = 0 (1 samples)
Overall maximum fragmentation = 0 (1 samples)
Overall minimum injected packet rate = 0.475 (1 samples)
Overall average injected packet rate = 0.499098 (1 samples)
Overall maximum injected packet rate = 0.521 (1 samples)
Overall minimum accepted packet rate = 0.477 (1 samples)
Overall average accepted packet rate = 0.495827 (1 samples)
Overall maximum accepted packet rate = 0.516 (1 samples)
Overall minimum injected flit rate = 0.475 (1 samples)
Overall average injected flit rate = 0.499098 (1 samples)
Overall maximum injected flit rate = 0.521 (1 samples)
Overall minimum accepted flit rate = 0.477 (1 samples)
Overall average accepted flit rate = 0.495827 (1 samples)
Overall maximum accepted flit rate = 0.516 (1 samples)
Overall average injected packet size = 1 (1 samples)
Overall average accepted packet size = 1 (1 samples)
Overall average hops = 2.7499 (1 samples)
Total run time 22.869
