BEGIN Configuration File: ./FBF-3.conf
injection_rate = 0.7;
traffic = asymmetric;
routing_function = ran_min;
vc_buf_size = 16;
topology = flatfly;
use_noc_latency = 0;
hold_switch_for_packet=0;

c = 4;
k = 8;
n = 2;

x  = 8;
y  = 8;
xr = 2;
yr = 2;

packet_size  = 1;
num_vcs      = 2;
vc_allocator = separable_input_first; 
sw_allocator = separable_input_first;

alloc_iters   = 1;
sample_period = 500;

wait_for_tail_credit = 0;
use_read_write       = 0;

credit_delay   = 2;
routing_delay  = 0;
vc_alloc_delay = 1;
sw_alloc_delay = 1;
st_final_delay = 1;

input_speedup     = 1;
output_speedup    = 1;
internal_speedup  = 2.0;

warmup_periods = 3;
sim_count      = 1;

priority = none;
injection_rate_uses_flits=1;

END Configuration File: ./FBF-3.conf
Number of nodes: 256
Number of routers: 64
 Flat Bufferfly 
 k = 8 n = 2 c = 4
 each switch - total radix =  18
 # of switches = 64
 # of channels = 896
 # of nodes ( size of network ) = 256
0
Class 0:
Minimum packet latency = 5
Average packet latency = 63.7211
Maximum packet latency = 221
Minimum network latency = 5
Average network latency = 51.8982
Maximum network latency = 149
Slowest packet = 25630
Minimum flit latency = 5
Average flit latency = 51.8982
Maximum flit latency = 149
Slowest flit = 45827
Minimum fragmentation = 0
Average fragmentation = 0
Maximum fragmentation = 0
Minimum injected packet rate = 0.504 (at node 27)
Average injected packet rate = 0.588406
Maximum injected packet rate = 0.692 (at node 26)
Minimum accepted packet rate = 0.408 (at node 27)
Average accepted packet rate = 0.510422
Maximum accepted packet rate = 0.608 (at node 26)
Minimum injected flit rate = 0.504 (at node 27)
Average injected flit rate = 0.588406
Maximum injected flit rate = 0.692 (at node 26)
Minimum accepted flit rate = 0.408 (at node 27)
Average accepted flit rate = 0.510422
Maximum accepted flit rate = 0.608 (at node 26)
Average injected packet length = 1
Average accepted packet length = 1
Total in-flight flits = 10107 (0 measured)
latency change    = 1
throughput change = 1
0
Class 0:
Minimum packet latency = 5
Average packet latency = 133.953
Maximum packet latency = 372
Minimum network latency = 5
Average network latency = 64.7967
Maximum network latency = 153
Slowest packet = 25630
Minimum flit latency = 5
Average flit latency = 64.7967
Maximum flit latency = 153
Slowest flit = 57595
Minimum fragmentation = 0
Average fragmentation = 0
Maximum fragmentation = 0
Minimum injected packet rate = 0.493 (at node 148)
Average injected packet rate = 0.545152
Maximum injected packet rate = 0.616 (at node 254)
Minimum accepted packet rate = 0.452 (at node 87)
Average accepted packet rate = 0.50607
Maximum accepted packet rate = 0.588 (at node 254)
Minimum injected flit rate = 0.493 (at node 148)
Average injected flit rate = 0.545152
Maximum injected flit rate = 0.616 (at node 254)
Minimum accepted flit rate = 0.452 (at node 87)
Average accepted flit rate = 0.50607
Maximum accepted flit rate = 0.588 (at node 254)
Average injected packet length = 1
Average accepted packet length = 1
Total in-flight flits = 10133 (0 measured)
latency change    = 0.524301
throughput change = 0.00859873
0
Class 0:
Minimum packet latency = 127
Average packet latency = 347.752
Maximum packet latency = 538
Minimum network latency = 21
Average network latency = 78.1922
Maximum network latency = 153
Slowest packet = 129096
Minimum flit latency = 21
Average flit latency = 78.1922
Maximum flit latency = 153
Slowest flit = 129536
Minimum fragmentation = 0
Average fragmentation = 0
Maximum fragmentation = 0
Minimum injected packet rate = 0.406 (at node 173)
Average injected packet rate = 0.498984
Maximum injected packet rate = 0.58 (at node 10)
Minimum accepted packet rate = 0.41 (at node 173)
Average accepted packet rate = 0.499031
Maximum accepted packet rate = 0.58 (at node 243)
Minimum injected flit rate = 0.406 (at node 173)
Average injected flit rate = 0.498984
Maximum injected flit rate = 0.58 (at node 10)
Minimum accepted flit rate = 0.41 (at node 173)
Average accepted flit rate = 0.499031
Maximum accepted flit rate = 0.58 (at node 243)
Average injected packet length = 1
Average accepted packet length = 1
Total in-flight flits = 10128 (0 measured)
latency change    = 0.614804
throughput change = 0.0141055
Warmed up ...Time used is 1500 cycles
1
Class 0:
Minimum packet latency = 273
Average packet latency = 500.983
Maximum packet latency = 702
Minimum network latency = 21
Average network latency = 77.1466
Maximum network latency = 158
Slowest packet = 203705
Minimum flit latency = 21
Average flit latency = 78.305
Maximum flit latency = 162
Slowest flit = 187670
Minimum fragmentation = 0
Average fragmentation = 0
Maximum fragmentation = 0
Minimum injected packet rate = 0.406 (at node 208)
Average injected packet rate = 0.499836
Maximum injected packet rate = 0.6 (at node 138)
Minimum accepted packet rate = 0.404 (at node 241)
Average accepted packet rate = 0.499805
Maximum accepted packet rate = 0.594 (at node 13)
Minimum injected flit rate = 0.406 (at node 208)
Average injected flit rate = 0.499836
Maximum injected flit rate = 0.6 (at node 138)
Minimum accepted flit rate = 0.404 (at node 241)
Average accepted flit rate = 0.499805
Maximum accepted flit rate = 0.594 (at node 13)
Average injected packet length = 1
Average accepted packet length = 1
Total in-flight flits = 10125 (10125 measured)
latency change    = 0.30586
throughput change = 0.00154748
Average latency for class 0 exceeded 500 cycles. Aborting simulation.
Too many sample periods needed to converge
Simulation unstable, ending ...
Total run time 7.75938
