BEGIN Configuration File: ./FBF-3.conf
injection_rate = 0.3;
traffic = shuffle;
routing_function = ugal;
vc_buf_size = 16;
topology = flatfly;
use_noc_latency = 0;
hold_switch_for_packet=0;

c = 4;
k = 8;
n = 2;

x  = 8;
y  = 8;
xr = 2;
yr = 2;

packet_size  = 1;
num_vcs      = 2;
vc_allocator = separable_input_first; 
sw_allocator = separable_input_first;

alloc_iters   = 1;
sample_period = 500;

wait_for_tail_credit = 0;
use_read_write       = 0;

credit_delay   = 2;
routing_delay  = 0;
vc_alloc_delay = 1;
sw_alloc_delay = 1;
st_final_delay = 1;

input_speedup     = 1;
output_speedup    = 1;
internal_speedup  = 2.0;

warmup_periods = 3;
sim_count      = 1;

priority = none;
injection_rate_uses_flits=1;

END Configuration File: ./FBF-3.conf
Number of nodes: 256
Number of routers: 64
 Flat Bufferfly 
 k = 8 n = 2 c = 4
 each switch - total radix =  18
 # of switches = 64
 # of channels = 896
 # of nodes ( size of network ) = 256
0
Class 0:
Minimum packet latency = 5
Average packet latency = 12.5095
Maximum packet latency = 25
Minimum network latency = 5
Average network latency = 12.5095
Maximum network latency = 25
Slowest packet = 29968
Minimum flit latency = 5
Average flit latency = 12.5095
Maximum flit latency = 25
Slowest flit = 29968
Minimum fragmentation = 0
Average fragmentation = 0
Maximum fragmentation = 0
Minimum injected packet rate = 0.238 (at node 172)
Average injected packet rate = 0.299031
Maximum injected packet rate = 0.348 (at node 22)
Minimum accepted packet rate = 0.236 (at node 89)
Average accepted packet rate = 0.291719
Maximum accepted packet rate = 0.348 (at node 223)
Minimum injected flit rate = 0.238 (at node 172)
Average injected flit rate = 0.299031
Maximum injected flit rate = 0.348 (at node 22)
Minimum accepted flit rate = 0.236 (at node 89)
Average accepted flit rate = 0.291719
Maximum accepted flit rate = 0.348 (at node 223)
Average injected packet length = 1
Average accepted packet length = 1
Total in-flight flits = 936 (0 measured)
latency change    = 1
throughput change = 1
0
Class 0:
Minimum packet latency = 5
Average packet latency = 12.5273
Maximum packet latency = 26
Minimum network latency = 5
Average network latency = 12.5273
Maximum network latency = 26
Slowest packet = 36691
Minimum flit latency = 5
Average flit latency = 12.5273
Maximum flit latency = 26
Slowest flit = 36691
Minimum fragmentation = 0
Average fragmentation = 0
Maximum fragmentation = 0
Minimum injected packet rate = 0.262 (at node 203)
Average injected packet rate = 0.299043
Maximum injected packet rate = 0.337 (at node 223)
Minimum accepted packet rate = 0.257 (at node 151)
Average accepted packet rate = 0.295063
Maximum accepted packet rate = 0.336 (at node 191)
Minimum injected flit rate = 0.262 (at node 203)
Average injected flit rate = 0.299043
Maximum injected flit rate = 0.337 (at node 223)
Minimum accepted flit rate = 0.257 (at node 151)
Average accepted flit rate = 0.295063
Maximum accepted flit rate = 0.336 (at node 191)
Average injected packet length = 1
Average accepted packet length = 1
Total in-flight flits = 1019 (0 measured)
latency change    = 0.00141912
throughput change = 0.0113323
0
Class 0:
Minimum packet latency = 5
Average packet latency = 12.5795
Maximum packet latency = 25
Minimum network latency = 5
Average network latency = 12.5795
Maximum network latency = 25
Slowest packet = 92805
Minimum flit latency = 5
Average flit latency = 12.5795
Maximum flit latency = 25
Slowest flit = 92805
Minimum fragmentation = 0
Average fragmentation = 0
Maximum fragmentation = 0
Minimum injected packet rate = 0.238 (at node 29)
Average injected packet rate = 0.298266
Maximum injected packet rate = 0.358 (at node 23)
Minimum accepted packet rate = 0.238 (at node 58)
Average accepted packet rate = 0.299094
Maximum accepted packet rate = 0.358 (at node 46)
Minimum injected flit rate = 0.238 (at node 29)
Average injected flit rate = 0.298266
Maximum injected flit rate = 0.358 (at node 23)
Minimum accepted flit rate = 0.238 (at node 58)
Average accepted flit rate = 0.299094
Maximum accepted flit rate = 0.358 (at node 46)
Average injected packet length = 1
Average accepted packet length = 1
Total in-flight flits = 913 (0 measured)
latency change    = 0.00415374
throughput change = 0.0134782
Warmed up ...Time used is 1500 cycles
1
Class 0:
Minimum packet latency = 5
Average packet latency = 12.5667
Maximum packet latency = 25
Minimum network latency = 5
Average network latency = 12.5667
Maximum network latency = 25
Slowest packet = 132624
Minimum flit latency = 5
Average flit latency = 12.5828
Maximum flit latency = 25
Slowest flit = 132624
Minimum fragmentation = 0
Average fragmentation = 0
Maximum fragmentation = 0
Minimum injected packet rate = 0.246 (at node 138)
Average injected packet rate = 0.300984
Maximum injected packet rate = 0.358 (at node 142)
Minimum accepted packet rate = 0.246 (at node 21)
Average accepted packet rate = 0.300438
Maximum accepted packet rate = 0.356 (at node 29)
Minimum injected flit rate = 0.246 (at node 138)
Average injected flit rate = 0.300984
Maximum injected flit rate = 0.358 (at node 142)
Minimum accepted flit rate = 0.246 (at node 21)
Average accepted flit rate = 0.300438
Maximum accepted flit rate = 0.356 (at node 29)
Average injected packet length = 1
Average accepted packet length = 1
Total in-flight flits = 983 (983 measured)
latency change    = 0.00101859
throughput change = 0.00447264
1
Class 0:
Minimum packet latency = 5
Average packet latency = 12.5673
Maximum packet latency = 25
Minimum network latency = 5
Average network latency = 12.5673
Maximum network latency = 25
Slowest packet = 132624
Minimum flit latency = 5
Average flit latency = 12.5754
Maximum flit latency = 25
Slowest flit = 132624
Minimum fragmentation = 0
Average fragmentation = 0
Maximum fragmentation = 0
Minimum injected packet rate = 0.266 (at node 138)
Average injected packet rate = 0.300621
Maximum injected packet rate = 0.334 (at node 30)
Minimum accepted packet rate = 0.266 (at node 21)
Average accepted packet rate = 0.300398
Maximum accepted packet rate = 0.337 (at node 129)
Minimum injected flit rate = 0.266 (at node 138)
Average injected flit rate = 0.300621
Maximum injected flit rate = 0.334 (at node 30)
Minimum accepted flit rate = 0.266 (at node 21)
Average accepted flit rate = 0.300398
Maximum accepted flit rate = 0.337 (at node 129)
Average injected packet length = 1
Average accepted packet length = 1
Total in-flight flits = 970 (970 measured)
latency change    = 4.84164e-05
throughput change = 0.000130036
1
Class 0:
Minimum packet latency = 5
Average packet latency = 12.5522
Maximum packet latency = 25
Minimum network latency = 5
Average network latency = 12.5522
Maximum network latency = 25
Slowest packet = 132624
Minimum flit latency = 5
Average flit latency = 12.5577
Maximum flit latency = 25
Slowest flit = 132624
Minimum fragmentation = 0
Average fragmentation = 0
Maximum fragmentation = 0
Minimum injected packet rate = 0.268 (at node 39)
Average injected packet rate = 0.300388
Maximum injected packet rate = 0.336 (at node 142)
Minimum accepted packet rate = 0.268667 (at node 78)
Average accepted packet rate = 0.300122
Maximum accepted packet rate = 0.334 (at node 29)
Minimum injected flit rate = 0.268 (at node 39)
Average injected flit rate = 0.300388
Maximum injected flit rate = 0.336 (at node 142)
Minimum accepted flit rate = 0.268667 (at node 78)
Average accepted flit rate = 0.300122
Maximum accepted flit rate = 0.334 (at node 29)
Average injected packet length = 1
Average accepted packet length = 1
Total in-flight flits = 1015 (1015 measured)
latency change    = 0.00120884
throughput change = 0.000919764
Draining all recorded packets ...
Draining remaining packets ...
Time taken is 3042 cycles
====== Traffic class 0 ======
Overall minimum packet latency = 5 (1 samples)
Overall average packet latency = 12.5611 (1 samples)
Overall maximum packet latency = 25 (1 samples)
Overall minimum network latency = 5 (1 samples)
Overall average network latency = 12.5611 (1 samples)
Overall maximum network latency = 25 (1 samples)
Overall minimum flit latency = 5 (1 samples)
Overall average flit latency = 12.5659 (1 samples)
Overall maximum flit latency = 25 (1 samples)
Overall minimum fragmentation = 0 (1 samples)
Overall average fragmentation = 0 (1 samples)
Overall maximum fragmentation = 0 (1 samples)
Overall minimum injected packet rate = 0.268 (1 samples)
Overall average injected packet rate = 0.300388 (1 samples)
Overall maximum injected packet rate = 0.336 (1 samples)
Overall minimum accepted packet rate = 0.268667 (1 samples)
Overall average accepted packet rate = 0.300122 (1 samples)
Overall maximum accepted packet rate = 0.334 (1 samples)
Overall minimum injected flit rate = 0.268 (1 samples)
Overall average injected flit rate = 0.300388 (1 samples)
Overall maximum injected flit rate = 0.336 (1 samples)
Overall minimum accepted flit rate = 0.268667 (1 samples)
Overall average accepted flit rate = 0.300122 (1 samples)
Overall maximum accepted flit rate = 0.334 (1 samples)
Overall average injected packet size = 1 (1 samples)
Overall average accepted packet size = 1 (1 samples)
Overall average hops = 3.30508 (1 samples)
Total run time 9.0028
