BEGIN Configuration File: ./FBF-3.conf
injection_rate = 0.2;
traffic = bitrev;
routing_function = xyyx;
vc_buf_size = 16;
topology = flatfly;
use_noc_latency = 0;
hold_switch_for_packet=0;

c = 4;
k = 8;
n = 2;

x  = 8;
y  = 8;
xr = 2;
yr = 2;

packet_size  = 1;
num_vcs      = 2;
vc_allocator = separable_input_first; 
sw_allocator = separable_input_first;

alloc_iters   = 1;
sample_period = 500;

wait_for_tail_credit = 0;
use_read_write       = 0;

credit_delay   = 2;
routing_delay  = 0;
vc_alloc_delay = 1;
sw_alloc_delay = 1;
st_final_delay = 1;

input_speedup     = 1;
output_speedup    = 1;
internal_speedup  = 2.0;

warmup_periods = 3;
sim_count      = 1;

priority = none;
injection_rate_uses_flits=1;

END Configuration File: ./FBF-3.conf
Number of nodes: 256
Number of routers: 64
 Flat Bufferfly 
 k = 8 n = 2 c = 4
 each switch - total radix =  18
 # of switches = 64
 # of channels = 896
 # of nodes ( size of network ) = 256
0
Class 0:
Minimum packet latency = 5
Average packet latency = 10.4184
Maximum packet latency = 16
Minimum network latency = 5
Average network latency = 10.4184
Maximum network latency = 16
Slowest packet = 964
Minimum flit latency = 5
Average flit latency = 10.4184
Maximum flit latency = 16
Slowest flit = 964
Minimum fragmentation = 0
Average fragmentation = 0
Maximum fragmentation = 0
Minimum injected packet rate = 0.158 (at node 1)
Average injected packet rate = 0.198797
Maximum injected packet rate = 0.254 (at node 239)
Minimum accepted packet rate = 0.152 (at node 128)
Average accepted packet rate = 0.194812
Maximum accepted packet rate = 0.254 (at node 247)
Minimum injected flit rate = 0.158 (at node 1)
Average injected flit rate = 0.198797
Maximum injected flit rate = 0.254 (at node 239)
Minimum accepted flit rate = 0.152 (at node 128)
Average accepted flit rate = 0.194812
Maximum accepted flit rate = 0.254 (at node 247)
Average injected packet length = 1
Average accepted packet length = 1
Total in-flight flits = 510 (0 measured)
latency change    = 1
throughput change = 1
0
Class 0:
Minimum packet latency = 5
Average packet latency = 10.4161
Maximum packet latency = 16
Minimum network latency = 5
Average network latency = 10.4161
Maximum network latency = 16
Slowest packet = 964
Minimum flit latency = 5
Average flit latency = 10.4161
Maximum flit latency = 16
Slowest flit = 964
Minimum fragmentation = 0
Average fragmentation = 0
Maximum fragmentation = 0
Minimum injected packet rate = 0.17 (at node 104)
Average injected packet rate = 0.199156
Maximum injected packet rate = 0.232 (at node 22)
Minimum accepted packet rate = 0.168 (at node 22)
Average accepted packet rate = 0.196973
Maximum accepted packet rate = 0.232 (at node 247)
Minimum injected flit rate = 0.17 (at node 104)
Average injected flit rate = 0.199156
Maximum injected flit rate = 0.232 (at node 22)
Minimum accepted flit rate = 0.168 (at node 22)
Average accepted flit rate = 0.196973
Maximum accepted flit rate = 0.232 (at node 247)
Average injected packet length = 1
Average accepted packet length = 1
Total in-flight flits = 559 (0 measured)
latency change    = 0.000221602
throughput change = 0.0109668
0
Class 0:
Minimum packet latency = 5
Average packet latency = 10.4027
Maximum packet latency = 16
Minimum network latency = 5
Average network latency = 10.4027
Maximum network latency = 16
Slowest packet = 62950
Minimum flit latency = 5
Average flit latency = 10.4027
Maximum flit latency = 16
Slowest flit = 62950
Minimum fragmentation = 0
Average fragmentation = 0
Maximum fragmentation = 0
Minimum injected packet rate = 0.148 (at node 29)
Average injected packet rate = 0.199695
Maximum injected packet rate = 0.264 (at node 39)
Minimum accepted packet rate = 0.142 (at node 100)
Average accepted packet rate = 0.199945
Maximum accepted packet rate = 0.264 (at node 228)
Minimum injected flit rate = 0.148 (at node 29)
Average injected flit rate = 0.199695
Maximum injected flit rate = 0.264 (at node 39)
Minimum accepted flit rate = 0.142 (at node 100)
Average accepted flit rate = 0.199945
Maximum accepted flit rate = 0.264 (at node 228)
Average injected packet length = 1
Average accepted packet length = 1
Total in-flight flits = 527 (0 measured)
latency change    = 0.00128771
throughput change = 0.0148673
Warmed up ...Time used is 1500 cycles
1
Class 0:
Minimum packet latency = 5
Average packet latency = 10.41
Maximum packet latency = 16
Minimum network latency = 5
Average network latency = 10.41
Maximum network latency = 16
Slowest packet = 86637
Minimum flit latency = 5
Average flit latency = 10.4185
Maximum flit latency = 16
Slowest flit = 86637
Minimum fragmentation = 0
Average fragmentation = 0
Maximum fragmentation = 0
Minimum injected packet rate = 0.142 (at node 174)
Average injected packet rate = 0.1995
Maximum injected packet rate = 0.252 (at node 122)
Minimum accepted packet rate = 0.142 (at node 117)
Average accepted packet rate = 0.199414
Maximum accepted packet rate = 0.254 (at node 94)
Minimum injected flit rate = 0.142 (at node 174)
Average injected flit rate = 0.1995
Maximum injected flit rate = 0.252 (at node 122)
Minimum accepted flit rate = 0.142 (at node 117)
Average accepted flit rate = 0.199414
Maximum accepted flit rate = 0.254 (at node 94)
Average injected packet length = 1
Average accepted packet length = 1
Total in-flight flits = 538 (538 measured)
latency change    = 0.000701774
throughput change = 0.00266405
1
Class 0:
Minimum packet latency = 5
Average packet latency = 10.4196
Maximum packet latency = 16
Minimum network latency = 5
Average network latency = 10.4196
Maximum network latency = 16
Slowest packet = 86637
Minimum flit latency = 5
Average flit latency = 10.4237
Maximum flit latency = 16
Slowest flit = 86637
Minimum fragmentation = 0
Average fragmentation = 0
Maximum fragmentation = 0
Minimum injected packet rate = 0.165 (at node 191)
Average injected packet rate = 0.200563
Maximum injected packet rate = 0.24 (at node 53)
Minimum accepted packet rate = 0.164 (at node 117)
Average accepted packet rate = 0.200555
Maximum accepted packet rate = 0.24 (at node 172)
Minimum injected flit rate = 0.165 (at node 191)
Average injected flit rate = 0.200563
Maximum injected flit rate = 0.24 (at node 53)
Minimum accepted flit rate = 0.164 (at node 117)
Average accepted flit rate = 0.200555
Maximum accepted flit rate = 0.24 (at node 172)
Average injected packet length = 1
Average accepted packet length = 1
Total in-flight flits = 529 (529 measured)
latency change    = 0.000918241
throughput change = 0.00568735
1
Class 0:
Minimum packet latency = 5
Average packet latency = 10.4219
Maximum packet latency = 16
Minimum network latency = 5
Average network latency = 10.4219
Maximum network latency = 16
Slowest packet = 86637
Minimum flit latency = 5
Average flit latency = 10.4246
Maximum flit latency = 16
Slowest flit = 86637
Minimum fragmentation = 0
Average fragmentation = 0
Maximum fragmentation = 0
Minimum injected packet rate = 0.169333 (at node 174)
Average injected packet rate = 0.200125
Maximum injected packet rate = 0.230667 (at node 163)
Minimum accepted packet rate = 0.166 (at node 117)
Average accepted packet rate = 0.200057
Maximum accepted packet rate = 0.228667 (at node 120)
Minimum injected flit rate = 0.169333 (at node 174)
Average injected flit rate = 0.200125
Maximum injected flit rate = 0.230667 (at node 163)
Minimum accepted flit rate = 0.166 (at node 117)
Average accepted flit rate = 0.200057
Maximum accepted flit rate = 0.228667 (at node 120)
Average injected packet length = 1
Average accepted packet length = 1
Total in-flight flits = 553 (553 measured)
latency change    = 0.000218301
throughput change = 0.00248627
Draining all recorded packets ...
Draining remaining packets ...
Time taken is 3030 cycles
====== Traffic class 0 ======
Overall minimum packet latency = 5 (1 samples)
Overall average packet latency = 10.4243 (1 samples)
Overall maximum packet latency = 16 (1 samples)
Overall minimum network latency = 5 (1 samples)
Overall average network latency = 10.4243 (1 samples)
Overall maximum network latency = 16 (1 samples)
Overall minimum flit latency = 5 (1 samples)
Overall average flit latency = 10.4266 (1 samples)
Overall maximum flit latency = 16 (1 samples)
Overall minimum fragmentation = 0 (1 samples)
Overall average fragmentation = 0 (1 samples)
Overall maximum fragmentation = 0 (1 samples)
Overall minimum injected packet rate = 0.169333 (1 samples)
Overall average injected packet rate = 0.200125 (1 samples)
Overall maximum injected packet rate = 0.230667 (1 samples)
Overall minimum accepted packet rate = 0.166 (1 samples)
Overall average accepted packet rate = 0.200057 (1 samples)
Overall maximum accepted packet rate = 0.228667 (1 samples)
Overall minimum injected flit rate = 0.169333 (1 samples)
Overall average injected flit rate = 0.200125 (1 samples)
Overall maximum injected flit rate = 0.230667 (1 samples)
Overall minimum accepted flit rate = 0.166 (1 samples)
Overall average accepted flit rate = 0.200057 (1 samples)
Overall maximum accepted flit rate = 0.228667 (1 samples)
Overall average injected packet size = 1 (1 samples)
Overall average accepted packet size = 1 (1 samples)
Overall average hops = 2.75288 (1 samples)
Total run time 5.65119
