BEGIN Configuration File: ./FBF-3.conf
injection_rate = 0.4;
traffic = shuffle;
routing_function = valiant;
vc_buf_size = 16;
topology = flatfly;
use_noc_latency = 0;
hold_switch_for_packet=0;

c = 4;
k = 8;
n = 2;

x  = 8;
y  = 8;
xr = 2;
yr = 2;

packet_size  = 1;
num_vcs      = 2;
vc_allocator = separable_input_first; 
sw_allocator = separable_input_first;

alloc_iters   = 1;
sample_period = 500;

wait_for_tail_credit = 0;
use_read_write       = 0;

credit_delay   = 2;
routing_delay  = 0;
vc_alloc_delay = 1;
sw_alloc_delay = 1;
st_final_delay = 1;

input_speedup     = 1;
output_speedup    = 1;
internal_speedup  = 2.0;

warmup_periods = 3;
sim_count      = 1;

priority = none;
injection_rate_uses_flits=1;

END Configuration File: ./FBF-3.conf
Number of nodes: 256
Number of routers: 64
 Flat Bufferfly 
 k = 8 n = 2 c = 4
 each switch - total radix =  18
 # of switches = 64
 # of channels = 896
 # of nodes ( size of network ) = 256
0
Class 0:
Minimum packet latency = 5
Average packet latency = 16.534
Maximum packet latency = 29
Minimum network latency = 5
Average network latency = 16.534
Maximum network latency = 29
Slowest packet = 7862
Minimum flit latency = 5
Average flit latency = 16.534
Maximum flit latency = 29
Slowest flit = 7862
Minimum fragmentation = 0
Average fragmentation = 0
Maximum fragmentation = 0
Minimum injected packet rate = 0.334 (at node 172)
Average injected packet rate = 0.398383
Maximum injected packet rate = 0.452 (at node 149)
Minimum accepted packet rate = 0.322 (at node 89)
Average accepted packet rate = 0.385242
Maximum accepted packet rate = 0.432 (at node 43)
Minimum injected flit rate = 0.334 (at node 172)
Average injected flit rate = 0.398383
Maximum injected flit rate = 0.452 (at node 149)
Minimum accepted flit rate = 0.322 (at node 89)
Average accepted flit rate = 0.385242
Maximum accepted flit rate = 0.432 (at node 43)
Average injected packet length = 1
Average accepted packet length = 1
Total in-flight flits = 1682 (0 measured)
latency change    = 1
throughput change = 1
0
Class 0:
Minimum packet latency = 5
Average packet latency = 16.5376
Maximum packet latency = 30
Minimum network latency = 5
Average network latency = 16.5376
Maximum network latency = 30
Slowest packet = 92691
Minimum flit latency = 5
Average flit latency = 16.5376
Maximum flit latency = 30
Slowest flit = 92691
Minimum fragmentation = 0
Average fragmentation = 0
Maximum fragmentation = 0
Minimum injected packet rate = 0.363 (at node 53)
Average injected packet rate = 0.399004
Maximum injected packet rate = 0.439 (at node 74)
Minimum accepted packet rate = 0.353 (at node 106)
Average accepted packet rate = 0.392172
Maximum accepted packet rate = 0.433 (at node 123)
Minimum injected flit rate = 0.363 (at node 53)
Average injected flit rate = 0.399004
Maximum injected flit rate = 0.439 (at node 74)
Minimum accepted flit rate = 0.353 (at node 106)
Average accepted flit rate = 0.392172
Maximum accepted flit rate = 0.433 (at node 123)
Average injected packet length = 1
Average accepted packet length = 1
Total in-flight flits = 1749 (0 measured)
latency change    = 0.000217843
throughput change = 0.01767
0
Class 0:
Minimum packet latency = 5
Average packet latency = 16.5639
Maximum packet latency = 31
Minimum network latency = 5
Average network latency = 16.5639
Maximum network latency = 31
Slowest packet = 116478
Minimum flit latency = 5
Average flit latency = 16.5639
Maximum flit latency = 31
Slowest flit = 116478
Minimum fragmentation = 0
Average fragmentation = 0
Maximum fragmentation = 0
Minimum injected packet rate = 0.34 (at node 186)
Average injected packet rate = 0.399008
Maximum injected packet rate = 0.46 (at node 51)
Minimum accepted packet rate = 0.334 (at node 117)
Average accepted packet rate = 0.400117
Maximum accepted packet rate = 0.456 (at node 15)
Minimum injected flit rate = 0.34 (at node 186)
Average injected flit rate = 0.399008
Maximum injected flit rate = 0.46 (at node 51)
Minimum accepted flit rate = 0.334 (at node 117)
Average accepted flit rate = 0.400117
Maximum accepted flit rate = 0.456 (at node 15)
Average injected packet length = 1
Average accepted packet length = 1
Total in-flight flits = 1607 (0 measured)
latency change    = 0.00158521
throughput change = 0.0198575
Warmed up ...Time used is 1500 cycles
1
Class 0:
Minimum packet latency = 5
Average packet latency = 16.593
Maximum packet latency = 30
Minimum network latency = 5
Average network latency = 16.593
Maximum network latency = 30
Slowest packet = 187089
Minimum flit latency = 5
Average flit latency = 16.6078
Maximum flit latency = 30
Slowest flit = 187089
Minimum fragmentation = 0
Average fragmentation = 0
Maximum fragmentation = 0
Minimum injected packet rate = 0.332 (at node 233)
Average injected packet rate = 0.401258
Maximum injected packet rate = 0.464 (at node 239)
Minimum accepted packet rate = 0.336 (at node 211)
Average accepted packet rate = 0.400023
Maximum accepted packet rate = 0.448 (at node 29)
Minimum injected flit rate = 0.332 (at node 233)
Average injected flit rate = 0.401258
Maximum injected flit rate = 0.464 (at node 239)
Minimum accepted flit rate = 0.336 (at node 211)
Average accepted flit rate = 0.400023
Maximum accepted flit rate = 0.448 (at node 29)
Average injected packet length = 1
Average accepted packet length = 1
Total in-flight flits = 1765 (1765 measured)
latency change    = 0.00175817
throughput change = 0.000234361
1
Class 0:
Minimum packet latency = 5
Average packet latency = 16.5905
Maximum packet latency = 30
Minimum network latency = 5
Average network latency = 16.5905
Maximum network latency = 30
Slowest packet = 187089
Minimum flit latency = 5
Average flit latency = 16.5979
Maximum flit latency = 30
Slowest flit = 187089
Minimum fragmentation = 0
Average fragmentation = 0
Maximum fragmentation = 0
Minimum injected packet rate = 0.367 (at node 171)
Average injected packet rate = 0.400414
Maximum injected packet rate = 0.437 (at node 220)
Minimum accepted packet rate = 0.366 (at node 232)
Average accepted packet rate = 0.40009
Maximum accepted packet rate = 0.437 (at node 230)
Minimum injected flit rate = 0.367 (at node 171)
Average injected flit rate = 0.400414
Maximum injected flit rate = 0.437 (at node 220)
Minimum accepted flit rate = 0.366 (at node 232)
Average accepted flit rate = 0.40009
Maximum accepted flit rate = 0.437 (at node 230)
Average injected packet length = 1
Average accepted packet length = 1
Total in-flight flits = 1690 (1690 measured)
latency change    = 0.000151312
throughput change = 0.000165978
1
Class 0:
Minimum packet latency = 5
Average packet latency = 16.5845
Maximum packet latency = 32
Minimum network latency = 5
Average network latency = 16.5845
Maximum network latency = 32
Slowest packet = 273904
Minimum flit latency = 5
Average flit latency = 16.5895
Maximum flit latency = 32
Slowest flit = 273904
Minimum fragmentation = 0
Average fragmentation = 0
Maximum fragmentation = 0
Minimum injected packet rate = 0.364 (at node 252)
Average injected packet rate = 0.400297
Maximum injected packet rate = 0.432 (at node 142)
Minimum accepted packet rate = 0.364 (at node 249)
Average accepted packet rate = 0.40001
Maximum accepted packet rate = 0.434667 (at node 230)
Minimum injected flit rate = 0.364 (at node 252)
Average injected flit rate = 0.400297
Maximum injected flit rate = 0.432 (at node 142)
Minimum accepted flit rate = 0.364 (at node 249)
Average accepted flit rate = 0.40001
Maximum accepted flit rate = 0.434667 (at node 230)
Average injected packet length = 1
Average accepted packet length = 1
Total in-flight flits = 1717 (1717 measured)
latency change    = 0.000365946
throughput change = 0.000198563
Draining all recorded packets ...
Draining remaining packets ...
Time taken is 3048 cycles
====== Traffic class 0 ======
Overall minimum packet latency = 5 (1 samples)
Overall average packet latency = 16.5902 (1 samples)
Overall maximum packet latency = 32 (1 samples)
Overall minimum network latency = 5 (1 samples)
Overall average network latency = 16.5902 (1 samples)
Overall maximum network latency = 32 (1 samples)
Overall minimum flit latency = 5 (1 samples)
Overall average flit latency = 16.5932 (1 samples)
Overall maximum flit latency = 32 (1 samples)
Overall minimum fragmentation = 0 (1 samples)
Overall average fragmentation = 0 (1 samples)
Overall maximum fragmentation = 0 (1 samples)
Overall minimum injected packet rate = 0.364 (1 samples)
Overall average injected packet rate = 0.400297 (1 samples)
Overall maximum injected packet rate = 0.432 (1 samples)
Overall minimum accepted packet rate = 0.364 (1 samples)
Overall average accepted packet rate = 0.40001 (1 samples)
Overall maximum accepted packet rate = 0.434667 (1 samples)
Overall minimum injected flit rate = 0.364 (1 samples)
Overall average injected flit rate = 0.400297 (1 samples)
Overall maximum injected flit rate = 0.432 (1 samples)
Overall minimum accepted flit rate = 0.364 (1 samples)
Overall average accepted flit rate = 0.40001 (1 samples)
Overall maximum accepted flit rate = 0.434667 (1 samples)
Overall average injected packet size = 1 (1 samples)
Overall average accepted packet size = 1 (1 samples)
Overall average hops = 4.42528 (1 samples)
Total run time 14.4858
