BEGIN Configuration File: ./FBF-3.conf
injection_rate = 0.4;
traffic = uniform;
routing_function = xyyx;
vc_buf_size = 16;
topology = flatfly;
use_noc_latency = 0;
hold_switch_for_packet=0;

c = 4;
k = 8;
n = 2;

x  = 8;
y  = 8;
xr = 2;
yr = 2;

packet_size  = 1;
num_vcs      = 2;
vc_allocator = separable_input_first; 
sw_allocator = separable_input_first;

alloc_iters   = 1;
sample_period = 500;

wait_for_tail_credit = 0;
use_read_write       = 0;

credit_delay   = 2;
routing_delay  = 0;
vc_alloc_delay = 1;
sw_alloc_delay = 1;
st_final_delay = 1;

input_speedup     = 1;
output_speedup    = 1;
internal_speedup  = 2.0;

warmup_periods = 3;
sim_count      = 1;

priority = none;
injection_rate_uses_flits=1;

END Configuration File: ./FBF-3.conf
Number of nodes: 256
Number of routers: 64
 Flat Bufferfly 
 k = 8 n = 2 c = 4
 each switch - total radix =  18
 # of switches = 64
 # of channels = 896
 # of nodes ( size of network ) = 256
0
Class 0:
Minimum packet latency = 5
Average packet latency = 10.7561
Maximum packet latency = 19
Minimum network latency = 5
Average network latency = 10.7561
Maximum network latency = 19
Slowest packet = 31917
Minimum flit latency = 5
Average flit latency = 10.7561
Maximum flit latency = 19
Slowest flit = 31917
Minimum fragmentation = 0
Average fragmentation = 0
Maximum fragmentation = 0
Minimum injected packet rate = 0.334 (at node 172)
Average injected packet rate = 0.398383
Maximum injected packet rate = 0.452 (at node 149)
Minimum accepted packet rate = 0.292 (at node 125)
Average accepted packet rate = 0.39
Maximum accepted packet rate = 0.47 (at node 183)
Minimum injected flit rate = 0.334 (at node 172)
Average injected flit rate = 0.398383
Maximum injected flit rate = 0.452 (at node 149)
Minimum accepted flit rate = 0.292 (at node 125)
Average accepted flit rate = 0.39
Maximum accepted flit rate = 0.47 (at node 183)
Average injected packet length = 1
Average accepted packet length = 1
Total in-flight flits = 1073 (0 measured)
latency change    = 1
throughput change = 1
0
Class 0:
Minimum packet latency = 5
Average packet latency = 10.7607
Maximum packet latency = 19
Minimum network latency = 5
Average network latency = 10.7607
Maximum network latency = 19
Slowest packet = 31917
Minimum flit latency = 5
Average flit latency = 10.7607
Maximum flit latency = 19
Slowest flit = 31917
Minimum fragmentation = 0
Average fragmentation = 0
Maximum fragmentation = 0
Minimum injected packet rate = 0.363 (at node 53)
Average injected packet rate = 0.399004
Maximum injected packet rate = 0.439 (at node 74)
Minimum accepted packet rate = 0.332 (at node 30)
Average accepted packet rate = 0.394449
Maximum accepted packet rate = 0.458 (at node 178)
Minimum injected flit rate = 0.363 (at node 53)
Average injected flit rate = 0.399004
Maximum injected flit rate = 0.439 (at node 74)
Minimum accepted flit rate = 0.332 (at node 30)
Average accepted flit rate = 0.394449
Maximum accepted flit rate = 0.458 (at node 178)
Average injected packet length = 1
Average accepted packet length = 1
Total in-flight flits = 1166 (0 measured)
latency change    = 0.000432367
throughput change = 0.0112796
0
Class 0:
Minimum packet latency = 5
Average packet latency = 10.7716
Maximum packet latency = 19
Minimum network latency = 5
Average network latency = 10.7716
Maximum network latency = 19
Slowest packet = 126505
Minimum flit latency = 5
Average flit latency = 10.7716
Maximum flit latency = 19
Slowest flit = 126505
Minimum fragmentation = 0
Average fragmentation = 0
Maximum fragmentation = 0
Minimum injected packet rate = 0.34 (at node 186)
Average injected packet rate = 0.399008
Maximum injected packet rate = 0.46 (at node 51)
Minimum accepted packet rate = 0.338 (at node 196)
Average accepted packet rate = 0.399758
Maximum accepted packet rate = 0.474 (at node 45)
Minimum injected flit rate = 0.34 (at node 186)
Average injected flit rate = 0.399008
Maximum injected flit rate = 0.46 (at node 51)
Minimum accepted flit rate = 0.338 (at node 196)
Average accepted flit rate = 0.399758
Maximum accepted flit rate = 0.474 (at node 45)
Average injected packet length = 1
Average accepted packet length = 1
Total in-flight flits = 1070 (0 measured)
latency change    = 0.00100436
throughput change = 0.0132795
Warmed up ...Time used is 1500 cycles
1
Class 0:
Minimum packet latency = 5
Average packet latency = 10.7671
Maximum packet latency = 19
Minimum network latency = 5
Average network latency = 10.7671
Maximum network latency = 19
Slowest packet = 158746
Minimum flit latency = 5
Average flit latency = 10.7733
Maximum flit latency = 19
Slowest flit = 158746
Minimum fragmentation = 0
Average fragmentation = 0
Maximum fragmentation = 0
Minimum injected packet rate = 0.332 (at node 233)
Average injected packet rate = 0.401258
Maximum injected packet rate = 0.464 (at node 239)
Minimum accepted packet rate = 0.326 (at node 122)
Average accepted packet rate = 0.400914
Maximum accepted packet rate = 0.474 (at node 184)
Minimum injected flit rate = 0.332 (at node 233)
Average injected flit rate = 0.401258
Maximum injected flit rate = 0.464 (at node 239)
Minimum accepted flit rate = 0.326 (at node 122)
Average accepted flit rate = 0.400914
Maximum accepted flit rate = 0.474 (at node 184)
Average injected packet length = 1
Average accepted packet length = 1
Total in-flight flits = 1114 (1114 measured)
latency change    = 0.000411487
throughput change = 0.00288403
1
Class 0:
Minimum packet latency = 5
Average packet latency = 10.7614
Maximum packet latency = 19
Minimum network latency = 5
Average network latency = 10.7614
Maximum network latency = 19
Slowest packet = 158746
Minimum flit latency = 5
Average flit latency = 10.7645
Maximum flit latency = 19
Slowest flit = 158746
Minimum fragmentation = 0
Average fragmentation = 0
Maximum fragmentation = 0
Minimum injected packet rate = 0.367 (at node 171)
Average injected packet rate = 0.400414
Maximum injected packet rate = 0.437 (at node 220)
Minimum accepted packet rate = 0.35 (at node 233)
Average accepted packet rate = 0.400391
Maximum accepted packet rate = 0.455 (at node 194)
Minimum injected flit rate = 0.367 (at node 171)
Average injected flit rate = 0.400414
Maximum injected flit rate = 0.437 (at node 220)
Minimum accepted flit rate = 0.35 (at node 233)
Average accepted flit rate = 0.400391
Maximum accepted flit rate = 0.455 (at node 194)
Average injected packet length = 1
Average accepted packet length = 1
Total in-flight flits = 1076 (1076 measured)
latency change    = 0.000533229
throughput change = 0.00130732
1
Class 0:
Minimum packet latency = 5
Average packet latency = 10.7639
Maximum packet latency = 19
Minimum network latency = 5
Average network latency = 10.7639
Maximum network latency = 19
Slowest packet = 158746
Minimum flit latency = 5
Average flit latency = 10.766
Maximum flit latency = 19
Slowest flit = 158746
Minimum fragmentation = 0
Average fragmentation = 0
Maximum fragmentation = 0
Minimum injected packet rate = 0.364 (at node 252)
Average injected packet rate = 0.400297
Maximum injected packet rate = 0.432 (at node 142)
Minimum accepted packet rate = 0.361333 (at node 170)
Average accepted packet rate = 0.400141
Maximum accepted packet rate = 0.449333 (at node 184)
Minimum injected flit rate = 0.364 (at node 252)
Average injected flit rate = 0.400297
Maximum injected flit rate = 0.432 (at node 142)
Minimum accepted flit rate = 0.361333 (at node 170)
Average accepted flit rate = 0.400141
Maximum accepted flit rate = 0.449333 (at node 184)
Average injected packet length = 1
Average accepted packet length = 1
Total in-flight flits = 1130 (1130 measured)
latency change    = 0.000236086
throughput change = 0.00062478
Draining all recorded packets ...
Draining remaining packets ...
Time taken is 3032 cycles
====== Traffic class 0 ======
Overall minimum packet latency = 5 (1 samples)
Overall average packet latency = 10.7659 (1 samples)
Overall maximum packet latency = 19 (1 samples)
Overall minimum network latency = 5 (1 samples)
Overall average network latency = 10.7659 (1 samples)
Overall maximum network latency = 19 (1 samples)
Overall minimum flit latency = 5 (1 samples)
Overall average flit latency = 10.7675 (1 samples)
Overall maximum flit latency = 19 (1 samples)
Overall minimum fragmentation = 0 (1 samples)
Overall average fragmentation = 0 (1 samples)
Overall maximum fragmentation = 0 (1 samples)
Overall minimum injected packet rate = 0.364 (1 samples)
Overall average injected packet rate = 0.400297 (1 samples)
Overall maximum injected packet rate = 0.432 (1 samples)
Overall minimum accepted packet rate = 0.361333 (1 samples)
Overall average accepted packet rate = 0.400141 (1 samples)
Overall maximum accepted packet rate = 0.449333 (1 samples)
Overall minimum injected flit rate = 0.364 (1 samples)
Overall average injected flit rate = 0.400297 (1 samples)
Overall maximum injected flit rate = 0.432 (1 samples)
Overall minimum accepted flit rate = 0.361333 (1 samples)
Overall average accepted flit rate = 0.400141 (1 samples)
Overall maximum accepted flit rate = 0.449333 (1 samples)
Overall average injected packet size = 1 (1 samples)
Overall average accepted packet size = 1 (1 samples)
Overall average hops = 2.74912 (1 samples)
Total run time 9.94091
