BEGIN Configuration File: ./FBF-3.conf
injection_rate = 0.4;
traffic = asymmetric;
routing_function = valiant;
vc_buf_size = 16;
topology = flatfly;
use_noc_latency = 0;
hold_switch_for_packet=0;

c = 4;
k = 8;
n = 2;

x  = 8;
y  = 8;
xr = 2;
yr = 2;

packet_size  = 1;
num_vcs      = 2;
vc_allocator = separable_input_first; 
sw_allocator = separable_input_first;

alloc_iters   = 1;
sample_period = 500;

wait_for_tail_credit = 0;
use_read_write       = 0;

credit_delay   = 2;
routing_delay  = 0;
vc_alloc_delay = 1;
sw_alloc_delay = 1;
st_final_delay = 1;

input_speedup     = 1;
output_speedup    = 1;
internal_speedup  = 2.0;

warmup_periods = 3;
sim_count      = 1;

priority = none;
injection_rate_uses_flits=1;

END Configuration File: ./FBF-3.conf
Number of nodes: 256
Number of routers: 64
 Flat Bufferfly 
 k = 8 n = 2 c = 4
 each switch - total radix =  18
 # of switches = 64
 # of channels = 896
 # of nodes ( size of network ) = 256
0
Class 0:
Minimum packet latency = 5
Average packet latency = 10.5756
Maximum packet latency = 24
Minimum network latency = 5
Average network latency = 10.5756
Maximum network latency = 24
Slowest packet = 10033
Minimum flit latency = 5
Average flit latency = 10.5756
Maximum flit latency = 24
Slowest flit = 10033
Minimum fragmentation = 0
Average fragmentation = 0
Maximum fragmentation = 0
Minimum injected packet rate = 0.334 (at node 172)
Average injected packet rate = 0.398383
Maximum injected packet rate = 0.452 (at node 149)
Minimum accepted packet rate = 0.336 (at node 206)
Average accepted packet rate = 0.390258
Maximum accepted packet rate = 0.458 (at node 171)
Minimum injected flit rate = 0.334 (at node 172)
Average injected flit rate = 0.398383
Maximum injected flit rate = 0.452 (at node 149)
Minimum accepted flit rate = 0.336 (at node 206)
Average accepted flit rate = 0.390258
Maximum accepted flit rate = 0.458 (at node 171)
Average injected packet length = 1
Average accepted packet length = 1
Total in-flight flits = 1040 (0 measured)
latency change    = 1
throughput change = 1
0
Class 0:
Minimum packet latency = 5
Average packet latency = 10.6079
Maximum packet latency = 24
Minimum network latency = 5
Average network latency = 10.6079
Maximum network latency = 24
Slowest packet = 10033
Minimum flit latency = 5
Average flit latency = 10.6079
Maximum flit latency = 24
Slowest flit = 10033
Minimum fragmentation = 0
Average fragmentation = 0
Maximum fragmentation = 0
Minimum injected packet rate = 0.363 (at node 53)
Average injected packet rate = 0.399004
Maximum injected packet rate = 0.439 (at node 74)
Minimum accepted packet rate = 0.352 (at node 53)
Average accepted packet rate = 0.394508
Maximum accepted packet rate = 0.437 (at node 61)
Minimum injected flit rate = 0.363 (at node 53)
Average injected flit rate = 0.399004
Maximum injected flit rate = 0.439 (at node 74)
Minimum accepted flit rate = 0.352 (at node 53)
Average accepted flit rate = 0.394508
Maximum accepted flit rate = 0.437 (at node 61)
Average injected packet length = 1
Average accepted packet length = 1
Total in-flight flits = 1151 (0 measured)
latency change    = 0.00304082
throughput change = 0.0107729
0
Class 0:
Minimum packet latency = 5
Average packet latency = 10.6453
Maximum packet latency = 23
Minimum network latency = 5
Average network latency = 10.6453
Maximum network latency = 23
Slowest packet = 106272
Minimum flit latency = 5
Average flit latency = 10.6453
Maximum flit latency = 23
Slowest flit = 106272
Minimum fragmentation = 0
Average fragmentation = 0
Maximum fragmentation = 0
Minimum injected packet rate = 0.34 (at node 186)
Average injected packet rate = 0.399008
Maximum injected packet rate = 0.46 (at node 51)
Minimum accepted packet rate = 0.328 (at node 5)
Average accepted packet rate = 0.399805
Maximum accepted packet rate = 0.474 (at node 142)
Minimum injected flit rate = 0.34 (at node 186)
Average injected flit rate = 0.399008
Maximum injected flit rate = 0.46 (at node 51)
Minimum accepted flit rate = 0.328 (at node 5)
Average accepted flit rate = 0.399805
Maximum accepted flit rate = 0.474 (at node 142)
Average injected packet length = 1
Average accepted packet length = 1
Total in-flight flits = 1049 (0 measured)
latency change    = 0.00351131
throughput change = 0.0132487
Warmed up ...Time used is 1500 cycles
1
Class 0:
Minimum packet latency = 5
Average packet latency = 10.5947
Maximum packet latency = 24
Minimum network latency = 5
Average network latency = 10.5947
Maximum network latency = 24
Slowest packet = 174106
Minimum flit latency = 5
Average flit latency = 10.6614
Maximum flit latency = 24
Slowest flit = 174106
Minimum fragmentation = 0
Average fragmentation = 0
Maximum fragmentation = 0
Minimum injected packet rate = 0.332 (at node 233)
Average injected packet rate = 0.401258
Maximum injected packet rate = 0.464 (at node 239)
Minimum accepted packet rate = 0.344 (at node 183)
Average accepted packet rate = 0.400742
Maximum accepted packet rate = 0.47 (at node 197)
Minimum injected flit rate = 0.332 (at node 233)
Average injected flit rate = 0.401258
Maximum injected flit rate = 0.464 (at node 239)
Minimum accepted flit rate = 0.344 (at node 183)
Average accepted flit rate = 0.400742
Maximum accepted flit rate = 0.47 (at node 197)
Average injected packet length = 1
Average accepted packet length = 1
Total in-flight flits = 1115 (1115 measured)
latency change    = 0.00477431
throughput change = 0.00233941
1
Class 0:
Minimum packet latency = 5
Average packet latency = 10.6405
Maximum packet latency = 24
Minimum network latency = 5
Average network latency = 10.6405
Maximum network latency = 24
Slowest packet = 174106
Minimum flit latency = 5
Average flit latency = 10.6734
Maximum flit latency = 24
Slowest flit = 174106
Minimum fragmentation = 0
Average fragmentation = 0
Maximum fragmentation = 0
Minimum injected packet rate = 0.367 (at node 171)
Average injected packet rate = 0.400414
Maximum injected packet rate = 0.437 (at node 220)
Minimum accepted packet rate = 0.354 (at node 124)
Average accepted packet rate = 0.40025
Maximum accepted packet rate = 0.448 (at node 92)
Minimum injected flit rate = 0.367 (at node 171)
Average injected flit rate = 0.400414
Maximum injected flit rate = 0.437 (at node 220)
Minimum accepted flit rate = 0.354 (at node 124)
Average accepted flit rate = 0.40025
Maximum accepted flit rate = 0.448 (at node 92)
Average injected packet length = 1
Average accepted packet length = 1
Total in-flight flits = 1091 (1091 measured)
latency change    = 0.00430737
throughput change = 0.0012297
1
Class 0:
Minimum packet latency = 5
Average packet latency = 10.6426
Maximum packet latency = 24
Minimum network latency = 5
Average network latency = 10.6426
Maximum network latency = 24
Slowest packet = 174106
Minimum flit latency = 5
Average flit latency = 10.6645
Maximum flit latency = 24
Slowest flit = 174106
Minimum fragmentation = 0
Average fragmentation = 0
Maximum fragmentation = 0
Minimum injected packet rate = 0.364 (at node 252)
Average injected packet rate = 0.400297
Maximum injected packet rate = 0.432 (at node 142)
Minimum accepted packet rate = 0.349333 (at node 124)
Average accepted packet rate = 0.40019
Maximum accepted packet rate = 0.437333 (at node 208)
Minimum injected flit rate = 0.364 (at node 252)
Average injected flit rate = 0.400297
Maximum injected flit rate = 0.432 (at node 142)
Minimum accepted flit rate = 0.349333 (at node 124)
Average accepted flit rate = 0.40019
Maximum accepted flit rate = 0.437333 (at node 208)
Average injected packet length = 1
Average accepted packet length = 1
Total in-flight flits = 1090 (1090 measured)
latency change    = 0.000194104
throughput change = 0.000149668
Draining all recorded packets ...
Draining remaining packets ...
Time taken is 3044 cycles
====== Traffic class 0 ======
Overall minimum packet latency = 5 (1 samples)
Overall average packet latency = 10.6648 (1 samples)
Overall maximum packet latency = 24 (1 samples)
Overall minimum network latency = 5 (1 samples)
Overall average network latency = 10.6648 (1 samples)
Overall maximum network latency = 24 (1 samples)
Overall minimum flit latency = 5 (1 samples)
Overall average flit latency = 10.6855 (1 samples)
Overall maximum flit latency = 24 (1 samples)
Overall minimum fragmentation = 0 (1 samples)
Overall average fragmentation = 0 (1 samples)
Overall maximum fragmentation = 0 (1 samples)
Overall minimum injected packet rate = 0.364 (1 samples)
Overall average injected packet rate = 0.400297 (1 samples)
Overall maximum injected packet rate = 0.432 (1 samples)
Overall minimum accepted packet rate = 0.349333 (1 samples)
Overall average accepted packet rate = 0.40019 (1 samples)
Overall maximum accepted packet rate = 0.437333 (1 samples)
Overall minimum injected flit rate = 0.364 (1 samples)
Overall average injected flit rate = 0.400297 (1 samples)
Overall maximum injected flit rate = 0.432 (1 samples)
Overall minimum accepted flit rate = 0.349333 (1 samples)
Overall average accepted flit rate = 0.40019 (1 samples)
Overall maximum accepted flit rate = 0.437333 (1 samples)
Overall average injected packet size = 1 (1 samples)
Overall average accepted packet size = 1 (1 samples)
Overall average hops = 2.74844 (1 samples)
Total run time 9.94894
