BEGIN Configuration File: ./FBF-3.conf
injection_rate = 0.3;
traffic = asymmetric;
routing_function = adaptive_xyyx;
vc_buf_size = 16;
topology = flatfly;
use_noc_latency = 0;
hold_switch_for_packet=0;

c = 4;
k = 8;
n = 2;

x  = 8;
y  = 8;
xr = 2;
yr = 2;

packet_size  = 1;
num_vcs      = 2;
vc_allocator = separable_input_first; 
sw_allocator = separable_input_first;

alloc_iters   = 1;
sample_period = 500;

wait_for_tail_credit = 0;
use_read_write       = 0;

credit_delay   = 2;
routing_delay  = 0;
vc_alloc_delay = 1;
sw_alloc_delay = 1;
st_final_delay = 1;

input_speedup     = 1;
output_speedup    = 1;
internal_speedup  = 2.0;

warmup_periods = 3;
sim_count      = 1;

priority = none;
injection_rate_uses_flits=1;

END Configuration File: ./FBF-3.conf
Number of nodes: 256
Number of routers: 64
 Flat Bufferfly 
 k = 8 n = 2 c = 4
 each switch - total radix =  18
 # of switches = 64
 # of channels = 896
 # of nodes ( size of network ) = 256
0
Class 0:
Minimum packet latency = 5
Average packet latency = 6.87357
Maximum packet latency = 17
Minimum network latency = 5
Average network latency = 6.87357
Maximum network latency = 17
Slowest packet = 14557
Minimum flit latency = 5
Average flit latency = 6.87357
Maximum flit latency = 17
Slowest flit = 14557
Minimum fragmentation = 0
Average fragmentation = 0
Maximum fragmentation = 0
Minimum injected packet rate = 0.238 (at node 172)
Average injected packet rate = 0.299031
Maximum injected packet rate = 0.348 (at node 22)
Minimum accepted packet rate = 0.234 (at node 164)
Average accepted packet rate = 0.295133
Maximum accepted packet rate = 0.354 (at node 156)
Minimum injected flit rate = 0.238 (at node 172)
Average injected flit rate = 0.299031
Maximum injected flit rate = 0.348 (at node 22)
Minimum accepted flit rate = 0.234 (at node 164)
Average accepted flit rate = 0.295133
Maximum accepted flit rate = 0.354 (at node 156)
Average injected packet length = 1
Average accepted packet length = 1
Total in-flight flits = 499 (0 measured)
latency change    = 1
throughput change = 1
0
Class 0:
Minimum packet latency = 5
Average packet latency = 6.8743
Maximum packet latency = 17
Minimum network latency = 5
Average network latency = 6.8743
Maximum network latency = 17
Slowest packet = 14557
Minimum flit latency = 5
Average flit latency = 6.8743
Maximum flit latency = 17
Slowest flit = 14557
Minimum fragmentation = 0
Average fragmentation = 0
Maximum fragmentation = 0
Minimum injected packet rate = 0.262 (at node 203)
Average injected packet rate = 0.299043
Maximum injected packet rate = 0.337 (at node 223)
Minimum accepted packet rate = 0.255 (at node 104)
Average accepted packet rate = 0.296836
Maximum accepted packet rate = 0.337 (at node 134)
Minimum injected flit rate = 0.262 (at node 203)
Average injected flit rate = 0.299043
Maximum injected flit rate = 0.337 (at node 223)
Minimum accepted flit rate = 0.255 (at node 104)
Average accepted flit rate = 0.296836
Maximum accepted flit rate = 0.337 (at node 134)
Average injected packet length = 1
Average accepted packet length = 1
Total in-flight flits = 565 (0 measured)
latency change    = 0.000105521
throughput change = 0.0057376
0
Class 0:
Minimum packet latency = 5
Average packet latency = 6.88877
Maximum packet latency = 17
Minimum network latency = 5
Average network latency = 6.88877
Maximum network latency = 17
Slowest packet = 79208
Minimum flit latency = 5
Average flit latency = 6.88877
Maximum flit latency = 17
Slowest flit = 79208
Minimum fragmentation = 0
Average fragmentation = 0
Maximum fragmentation = 0
Minimum injected packet rate = 0.238 (at node 29)
Average injected packet rate = 0.298266
Maximum injected packet rate = 0.358 (at node 23)
Minimum accepted packet rate = 0.244 (at node 24)
Average accepted packet rate = 0.298797
Maximum accepted packet rate = 0.374 (at node 151)
Minimum injected flit rate = 0.238 (at node 29)
Average injected flit rate = 0.298266
Maximum injected flit rate = 0.358 (at node 23)
Minimum accepted flit rate = 0.244 (at node 24)
Average accepted flit rate = 0.298797
Maximum accepted flit rate = 0.374 (at node 151)
Average injected packet length = 1
Average accepted packet length = 1
Total in-flight flits = 497 (0 measured)
latency change    = 0.00210102
throughput change = 0.00656278
Warmed up ...Time used is 1500 cycles
1
Class 0:
Minimum packet latency = 5
Average packet latency = 6.86432
Maximum packet latency = 17
Minimum network latency = 5
Average network latency = 6.86432
Maximum network latency = 17
Slowest packet = 136495
Minimum flit latency = 5
Average flit latency = 6.87267
Maximum flit latency = 17
Slowest flit = 136495
Minimum fragmentation = 0
Average fragmentation = 0
Maximum fragmentation = 0
Minimum injected packet rate = 0.246 (at node 138)
Average injected packet rate = 0.300984
Maximum injected packet rate = 0.358 (at node 142)
Minimum accepted packet rate = 0.236 (at node 137)
Average accepted packet rate = 0.300703
Maximum accepted packet rate = 0.362 (at node 215)
Minimum injected flit rate = 0.246 (at node 138)
Average injected flit rate = 0.300984
Maximum injected flit rate = 0.358 (at node 142)
Minimum accepted flit rate = 0.236 (at node 137)
Average accepted flit rate = 0.300703
Maximum accepted flit rate = 0.362 (at node 215)
Average injected packet length = 1
Average accepted packet length = 1
Total in-flight flits = 533 (533 measured)
latency change    = 0.00356271
throughput change = 0.00633931
1
Class 0:
Minimum packet latency = 5
Average packet latency = 6.88202
Maximum packet latency = 17
Minimum network latency = 5
Average network latency = 6.88202
Maximum network latency = 17
Slowest packet = 136495
Minimum flit latency = 5
Average flit latency = 6.88609
Maximum flit latency = 17
Slowest flit = 136495
Minimum fragmentation = 0
Average fragmentation = 0
Maximum fragmentation = 0
Minimum injected packet rate = 0.266 (at node 138)
Average injected packet rate = 0.300621
Maximum injected packet rate = 0.334 (at node 30)
Minimum accepted packet rate = 0.26 (at node 246)
Average accepted packet rate = 0.3005
Maximum accepted packet rate = 0.351 (at node 162)
Minimum injected flit rate = 0.266 (at node 138)
Average injected flit rate = 0.300621
Maximum injected flit rate = 0.334 (at node 30)
Minimum accepted flit rate = 0.26 (at node 246)
Average accepted flit rate = 0.3005
Maximum accepted flit rate = 0.351 (at node 162)
Average injected packet length = 1
Average accepted packet length = 1
Total in-flight flits = 528 (528 measured)
latency change    = 0.00257296
throughput change = 0.000675957
1
Class 0:
Minimum packet latency = 5
Average packet latency = 6.89148
Maximum packet latency = 17
Minimum network latency = 5
Average network latency = 6.89148
Maximum network latency = 17
Slowest packet = 136495
Minimum flit latency = 5
Average flit latency = 6.89415
Maximum flit latency = 17
Slowest flit = 136495
Minimum fragmentation = 0
Average fragmentation = 0
Maximum fragmentation = 0
Minimum injected packet rate = 0.268 (at node 39)
Average injected packet rate = 0.300388
Maximum injected packet rate = 0.336 (at node 142)
Minimum accepted packet rate = 0.266667 (at node 167)
Average accepted packet rate = 0.300211
Maximum accepted packet rate = 0.335333 (at node 14)
Minimum injected flit rate = 0.268 (at node 39)
Average injected flit rate = 0.300388
Maximum injected flit rate = 0.336 (at node 142)
Minimum accepted flit rate = 0.266667 (at node 167)
Average accepted flit rate = 0.300211
Maximum accepted flit rate = 0.335333 (at node 14)
Average injected packet length = 1
Average accepted packet length = 1
Total in-flight flits = 565 (565 measured)
latency change    = 0.00137254
throughput change = 0.000962865
Draining all recorded packets ...
Draining remaining packets ...
Time taken is 3026 cycles
====== Traffic class 0 ======
Overall minimum packet latency = 5 (1 samples)
Overall average packet latency = 6.89434 (1 samples)
Overall maximum packet latency = 17 (1 samples)
Overall minimum network latency = 5 (1 samples)
Overall average network latency = 6.89434 (1 samples)
Overall maximum network latency = 17 (1 samples)
Overall minimum flit latency = 5 (1 samples)
Overall average flit latency = 6.89659 (1 samples)
Overall maximum flit latency = 17 (1 samples)
Overall minimum fragmentation = 0 (1 samples)
Overall average fragmentation = 0 (1 samples)
Overall maximum fragmentation = 0 (1 samples)
Overall minimum injected packet rate = 0.268 (1 samples)
Overall average injected packet rate = 0.300388 (1 samples)
Overall maximum injected packet rate = 0.336 (1 samples)
Overall minimum accepted packet rate = 0.266667 (1 samples)
Overall average accepted packet rate = 0.300211 (1 samples)
Overall maximum accepted packet rate = 0.335333 (1 samples)
Overall minimum injected flit rate = 0.268 (1 samples)
Overall average injected flit rate = 0.300388 (1 samples)
Overall maximum injected flit rate = 0.336 (1 samples)
Overall minimum accepted flit rate = 0.266667 (1 samples)
Overall average accepted flit rate = 0.300211 (1 samples)
Overall maximum accepted flit rate = 0.335333 (1 samples)
Overall average injected packet size = 1 (1 samples)
Overall average accepted packet size = 1 (1 samples)
Overall average hops = 1.50146 (1 samples)
Total run time 5.5206
