BEGIN Configuration File: ./FBF-3.conf
injection_rate = 0.3;
traffic = asymmetric;
routing_function = ugal;
vc_buf_size = 16;
topology = flatfly;
use_noc_latency = 0;
hold_switch_for_packet=0;

c = 4;
k = 8;
n = 2;

x  = 8;
y  = 8;
xr = 2;
yr = 2;

packet_size  = 1;
num_vcs      = 2;
vc_allocator = separable_input_first; 
sw_allocator = separable_input_first;

alloc_iters   = 1;
sample_period = 500;

wait_for_tail_credit = 0;
use_read_write       = 0;

credit_delay   = 2;
routing_delay  = 0;
vc_alloc_delay = 1;
sw_alloc_delay = 1;
st_final_delay = 1;

input_speedup     = 1;
output_speedup    = 1;
internal_speedup  = 2.0;

warmup_periods = 3;
sim_count      = 1;

priority = none;
injection_rate_uses_flits=1;

END Configuration File: ./FBF-3.conf
Number of nodes: 256
Number of routers: 64
 Flat Bufferfly 
 k = 8 n = 2 c = 4
 each switch - total radix =  18
 # of switches = 64
 # of channels = 896
 # of nodes ( size of network ) = 256
0
Class 0:
Minimum packet latency = 5
Average packet latency = 7.21971
Maximum packet latency = 17
Minimum network latency = 5
Average network latency = 7.21971
Maximum network latency = 17
Slowest packet = 7856
Minimum flit latency = 5
Average flit latency = 7.21971
Maximum flit latency = 17
Slowest flit = 7856
Minimum fragmentation = 0
Average fragmentation = 0
Maximum fragmentation = 0
Minimum injected packet rate = 0.238 (at node 172)
Average injected packet rate = 0.299031
Maximum injected packet rate = 0.348 (at node 22)
Minimum accepted packet rate = 0.234 (at node 76)
Average accepted packet rate = 0.295023
Maximum accepted packet rate = 0.366 (at node 82)
Minimum injected flit rate = 0.238 (at node 172)
Average injected flit rate = 0.299031
Maximum injected flit rate = 0.348 (at node 22)
Minimum accepted flit rate = 0.234 (at node 76)
Average accepted flit rate = 0.295023
Maximum accepted flit rate = 0.366 (at node 82)
Average injected packet length = 1
Average accepted packet length = 1
Total in-flight flits = 513 (0 measured)
latency change    = 1
throughput change = 1
0
Class 0:
Minimum packet latency = 5
Average packet latency = 7.21533
Maximum packet latency = 17
Minimum network latency = 5
Average network latency = 7.21533
Maximum network latency = 17
Slowest packet = 7856
Minimum flit latency = 5
Average flit latency = 7.21533
Maximum flit latency = 17
Slowest flit = 7856
Minimum fragmentation = 0
Average fragmentation = 0
Maximum fragmentation = 0
Minimum injected packet rate = 0.262 (at node 203)
Average injected packet rate = 0.299043
Maximum injected packet rate = 0.337 (at node 223)
Minimum accepted packet rate = 0.247 (at node 76)
Average accepted packet rate = 0.29673
Maximum accepted packet rate = 0.331 (at node 192)
Minimum injected flit rate = 0.262 (at node 203)
Average injected flit rate = 0.299043
Maximum injected flit rate = 0.337 (at node 223)
Minimum accepted flit rate = 0.247 (at node 76)
Average accepted flit rate = 0.29673
Maximum accepted flit rate = 0.331 (at node 192)
Average injected packet length = 1
Average accepted packet length = 1
Total in-flight flits = 592 (0 measured)
latency change    = 0.000607582
throughput change = 0.0057528
0
Class 0:
Minimum packet latency = 5
Average packet latency = 7.23831
Maximum packet latency = 15
Minimum network latency = 5
Average network latency = 7.23831
Maximum network latency = 15
Slowest packet = 76961
Minimum flit latency = 5
Average flit latency = 7.23831
Maximum flit latency = 15
Slowest flit = 76961
Minimum fragmentation = 0
Average fragmentation = 0
Maximum fragmentation = 0
Minimum injected packet rate = 0.238 (at node 29)
Average injected packet rate = 0.298266
Maximum injected packet rate = 0.358 (at node 23)
Minimum accepted packet rate = 0.238 (at node 29)
Average accepted packet rate = 0.298789
Maximum accepted packet rate = 0.37 (at node 230)
Minimum injected flit rate = 0.238 (at node 29)
Average injected flit rate = 0.298266
Maximum injected flit rate = 0.358 (at node 23)
Minimum accepted flit rate = 0.238 (at node 29)
Average accepted flit rate = 0.298789
Maximum accepted flit rate = 0.37 (at node 230)
Average injected packet length = 1
Average accepted packet length = 1
Total in-flight flits = 525 (0 measured)
latency change    = 0.00317438
throughput change = 0.00688979
Warmed up ...Time used is 1500 cycles
1
Class 0:
Minimum packet latency = 5
Average packet latency = 7.23373
Maximum packet latency = 16
Minimum network latency = 5
Average network latency = 7.23373
Maximum network latency = 16
Slowest packet = 142731
Minimum flit latency = 5
Average flit latency = 7.24337
Maximum flit latency = 16
Slowest flit = 142731
Minimum fragmentation = 0
Average fragmentation = 0
Maximum fragmentation = 0
Minimum injected packet rate = 0.246 (at node 138)
Average injected packet rate = 0.300984
Maximum injected packet rate = 0.358 (at node 142)
Minimum accepted packet rate = 0.232 (at node 225)
Average accepted packet rate = 0.300656
Maximum accepted packet rate = 0.358 (at node 154)
Minimum injected flit rate = 0.246 (at node 138)
Average injected flit rate = 0.300984
Maximum injected flit rate = 0.358 (at node 142)
Minimum accepted flit rate = 0.232 (at node 225)
Average accepted flit rate = 0.300656
Maximum accepted flit rate = 0.358 (at node 154)
Average injected packet length = 1
Average accepted packet length = 1
Total in-flight flits = 567 (567 measured)
latency change    = 0.000633118
throughput change = 0.00621037
1
Class 0:
Minimum packet latency = 5
Average packet latency = 7.24736
Maximum packet latency = 16
Minimum network latency = 5
Average network latency = 7.24736
Maximum network latency = 16
Slowest packet = 142731
Minimum flit latency = 5
Average flit latency = 7.2521
Maximum flit latency = 16
Slowest flit = 142731
Minimum fragmentation = 0
Average fragmentation = 0
Maximum fragmentation = 0
Minimum injected packet rate = 0.266 (at node 138)
Average injected packet rate = 0.300621
Maximum injected packet rate = 0.334 (at node 30)
Minimum accepted packet rate = 0.254 (at node 124)
Average accepted packet rate = 0.300559
Maximum accepted packet rate = 0.337 (at node 13)
Minimum injected flit rate = 0.266 (at node 138)
Average injected flit rate = 0.300621
Maximum injected flit rate = 0.334 (at node 30)
Minimum accepted flit rate = 0.254 (at node 124)
Average accepted flit rate = 0.300559
Maximum accepted flit rate = 0.337 (at node 13)
Average injected packet length = 1
Average accepted packet length = 1
Total in-flight flits = 541 (541 measured)
latency change    = 0.00188169
throughput change = 0.000324916
1
Class 0:
Minimum packet latency = 5
Average packet latency = 7.24255
Maximum packet latency = 16
Minimum network latency = 5
Average network latency = 7.24255
Maximum network latency = 16
Slowest packet = 142731
Minimum flit latency = 5
Average flit latency = 7.24573
Maximum flit latency = 16
Slowest flit = 142731
Minimum fragmentation = 0
Average fragmentation = 0
Maximum fragmentation = 0
Minimum injected packet rate = 0.268 (at node 39)
Average injected packet rate = 0.300388
Maximum injected packet rate = 0.336 (at node 142)
Minimum accepted packet rate = 0.269333 (at node 124)
Average accepted packet rate = 0.300247
Maximum accepted packet rate = 0.332667 (at node 108)
Minimum injected flit rate = 0.268 (at node 39)
Average injected flit rate = 0.300388
Maximum injected flit rate = 0.336 (at node 142)
Minimum accepted flit rate = 0.269333 (at node 124)
Average accepted flit rate = 0.300247
Maximum accepted flit rate = 0.332667 (at node 108)
Average injected packet length = 1
Average accepted packet length = 1
Total in-flight flits = 579 (579 measured)
latency change    = 0.000665129
throughput change = 0.00103647
Draining all recorded packets ...
Draining remaining packets ...
Time taken is 3028 cycles
====== Traffic class 0 ======
Overall minimum packet latency = 5 (1 samples)
Overall average packet latency = 7.2462 (1 samples)
Overall maximum packet latency = 16 (1 samples)
Overall minimum network latency = 5 (1 samples)
Overall average network latency = 7.2462 (1 samples)
Overall maximum network latency = 16 (1 samples)
Overall minimum flit latency = 5 (1 samples)
Overall average flit latency = 7.2479 (1 samples)
Overall maximum flit latency = 16 (1 samples)
Overall minimum fragmentation = 0 (1 samples)
Overall average fragmentation = 0 (1 samples)
Overall maximum fragmentation = 0 (1 samples)
Overall minimum injected packet rate = 0.268 (1 samples)
Overall average injected packet rate = 0.300388 (1 samples)
Overall maximum injected packet rate = 0.336 (1 samples)
Overall minimum accepted packet rate = 0.269333 (1 samples)
Overall average accepted packet rate = 0.300247 (1 samples)
Overall maximum accepted packet rate = 0.332667 (1 samples)
Overall minimum injected flit rate = 0.268 (1 samples)
Overall average injected flit rate = 0.300388 (1 samples)
Overall maximum injected flit rate = 0.336 (1 samples)
Overall minimum accepted flit rate = 0.269333 (1 samples)
Overall average accepted flit rate = 0.300247 (1 samples)
Overall maximum accepted flit rate = 0.332667 (1 samples)
Overall average injected packet size = 1 (1 samples)
Overall average accepted packet size = 1 (1 samples)
Overall average hops = 1.6618 (1 samples)
Total run time 5.87958
