BEGIN Configuration File: ./FBF-3.conf
injection_rate = 0.4;
traffic = uniform;
routing_function = valiant;
vc_buf_size = 16;
topology = flatfly;
use_noc_latency = 0;
hold_switch_for_packet=0;

c = 4;
k = 8;
n = 2;

x  = 8;
y  = 8;
xr = 2;
yr = 2;

packet_size  = 1;
num_vcs      = 2;
vc_allocator = separable_input_first; 
sw_allocator = separable_input_first;

alloc_iters   = 1;
sample_period = 500;

wait_for_tail_credit = 0;
use_read_write       = 0;

credit_delay   = 2;
routing_delay  = 0;
vc_alloc_delay = 1;
sw_alloc_delay = 1;
st_final_delay = 1;

input_speedup     = 1;
output_speedup    = 1;
internal_speedup  = 2.0;

warmup_periods = 3;
sim_count      = 1;

priority = none;
injection_rate_uses_flits=1;

END Configuration File: ./FBF-3.conf
Number of nodes: 256
Number of routers: 64
 Flat Bufferfly 
 k = 8 n = 2 c = 4
 each switch - total radix =  18
 # of switches = 64
 # of channels = 896
 # of nodes ( size of network ) = 256
0
Class 0:
Minimum packet latency = 5
Average packet latency = 16.6463
Maximum packet latency = 28
Minimum network latency = 5
Average network latency = 16.6463
Maximum network latency = 28
Slowest packet = 4515
Minimum flit latency = 5
Average flit latency = 16.6463
Maximum flit latency = 28
Slowest flit = 4515
Minimum fragmentation = 0
Average fragmentation = 0
Maximum fragmentation = 0
Minimum injected packet rate = 0.334 (at node 172)
Average injected packet rate = 0.398383
Maximum injected packet rate = 0.452 (at node 149)
Minimum accepted packet rate = 0.294 (at node 100)
Average accepted packet rate = 0.385125
Maximum accepted packet rate = 0.474 (at node 57)
Minimum injected flit rate = 0.334 (at node 172)
Average injected flit rate = 0.398383
Maximum injected flit rate = 0.452 (at node 149)
Minimum accepted flit rate = 0.294 (at node 100)
Average accepted flit rate = 0.385125
Maximum accepted flit rate = 0.474 (at node 57)
Average injected packet length = 1
Average accepted packet length = 1
Total in-flight flits = 1697 (0 measured)
latency change    = 1
throughput change = 1
0
Class 0:
Minimum packet latency = 5
Average packet latency = 16.6579
Maximum packet latency = 33
Minimum network latency = 5
Average network latency = 16.6579
Maximum network latency = 33
Slowest packet = 85270
Minimum flit latency = 5
Average flit latency = 16.6579
Maximum flit latency = 33
Slowest flit = 85270
Minimum fragmentation = 0
Average fragmentation = 0
Maximum fragmentation = 0
Minimum injected packet rate = 0.363 (at node 53)
Average injected packet rate = 0.399004
Maximum injected packet rate = 0.439 (at node 74)
Minimum accepted packet rate = 0.318 (at node 165)
Average accepted packet rate = 0.392055
Maximum accepted packet rate = 0.444 (at node 9)
Minimum injected flit rate = 0.363 (at node 53)
Average injected flit rate = 0.399004
Maximum injected flit rate = 0.439 (at node 74)
Minimum accepted flit rate = 0.318 (at node 165)
Average accepted flit rate = 0.392055
Maximum accepted flit rate = 0.444 (at node 9)
Average injected packet length = 1
Average accepted packet length = 1
Total in-flight flits = 1779 (0 measured)
latency change    = 0.000695324
throughput change = 0.0176753
0
Class 0:
Minimum packet latency = 5
Average packet latency = 16.6763
Maximum packet latency = 28
Minimum network latency = 5
Average network latency = 16.6763
Maximum network latency = 28
Slowest packet = 99856
Minimum flit latency = 5
Average flit latency = 16.6763
Maximum flit latency = 28
Slowest flit = 99856
Minimum fragmentation = 0
Average fragmentation = 0
Maximum fragmentation = 0
Minimum injected packet rate = 0.34 (at node 186)
Average injected packet rate = 0.399008
Maximum injected packet rate = 0.46 (at node 51)
Minimum accepted packet rate = 0.336 (at node 112)
Average accepted packet rate = 0.40007
Maximum accepted packet rate = 0.48 (at node 64)
Minimum injected flit rate = 0.34 (at node 186)
Average injected flit rate = 0.399008
Maximum injected flit rate = 0.46 (at node 51)
Minimum accepted flit rate = 0.336 (at node 112)
Average accepted flit rate = 0.40007
Maximum accepted flit rate = 0.48 (at node 64)
Average injected packet length = 1
Average accepted packet length = 1
Total in-flight flits = 1643 (0 measured)
latency change    = 0.00110721
throughput change = 0.0200355
Warmed up ...Time used is 1500 cycles
1
Class 0:
Minimum packet latency = 5
Average packet latency = 16.6477
Maximum packet latency = 29
Minimum network latency = 5
Average network latency = 16.6477
Maximum network latency = 29
Slowest packet = 171727
Minimum flit latency = 5
Average flit latency = 16.6657
Maximum flit latency = 29
Slowest flit = 171727
Minimum fragmentation = 0
Average fragmentation = 0
Maximum fragmentation = 0
Minimum injected packet rate = 0.332 (at node 233)
Average injected packet rate = 0.401258
Maximum injected packet rate = 0.464 (at node 239)
Minimum accepted packet rate = 0.33 (at node 70)
Average accepted packet rate = 0.400461
Maximum accepted packet rate = 0.506 (at node 102)
Minimum injected flit rate = 0.332 (at node 233)
Average injected flit rate = 0.401258
Maximum injected flit rate = 0.464 (at node 239)
Minimum accepted flit rate = 0.33 (at node 70)
Average accepted flit rate = 0.400461
Maximum accepted flit rate = 0.506 (at node 102)
Average injected packet length = 1
Average accepted packet length = 1
Total in-flight flits = 1745 (1745 measured)
latency change    = 0.00172231
throughput change = 0.000975438
1
Class 0:
Minimum packet latency = 5
Average packet latency = 16.6648
Maximum packet latency = 33
Minimum network latency = 5
Average network latency = 16.6648
Maximum network latency = 33
Slowest packet = 247401
Minimum flit latency = 5
Average flit latency = 16.6736
Maximum flit latency = 33
Slowest flit = 247401
Minimum fragmentation = 0
Average fragmentation = 0
Maximum fragmentation = 0
Minimum injected packet rate = 0.367 (at node 171)
Average injected packet rate = 0.400414
Maximum injected packet rate = 0.437 (at node 220)
Minimum accepted packet rate = 0.345 (at node 17)
Average accepted packet rate = 0.40018
Maximum accepted packet rate = 0.456 (at node 9)
Minimum injected flit rate = 0.367 (at node 171)
Average injected flit rate = 0.400414
Maximum injected flit rate = 0.437 (at node 220)
Minimum accepted flit rate = 0.345 (at node 17)
Average accepted flit rate = 0.40018
Maximum accepted flit rate = 0.456 (at node 9)
Average injected packet length = 1
Average accepted packet length = 1
Total in-flight flits = 1703 (1703 measured)
latency change    = 0.00103135
throughput change = 0.000702809
1
Class 0:
Minimum packet latency = 5
Average packet latency = 16.6688
Maximum packet latency = 33
Minimum network latency = 5
Average network latency = 16.6688
Maximum network latency = 33
Slowest packet = 247401
Minimum flit latency = 5
Average flit latency = 16.6745
Maximum flit latency = 33
Slowest flit = 247401
Minimum fragmentation = 0
Average fragmentation = 0
Maximum fragmentation = 0
Minimum injected packet rate = 0.364 (at node 252)
Average injected packet rate = 0.400297
Maximum injected packet rate = 0.432 (at node 142)
Minimum accepted packet rate = 0.352667 (at node 17)
Average accepted packet rate = 0.400073
Maximum accepted packet rate = 0.443333 (at node 150)
Minimum injected flit rate = 0.364 (at node 252)
Average injected flit rate = 0.400297
Maximum injected flit rate = 0.432 (at node 142)
Minimum accepted flit rate = 0.352667 (at node 17)
Average accepted flit rate = 0.400073
Maximum accepted flit rate = 0.443333 (at node 150)
Average injected packet length = 1
Average accepted packet length = 1
Total in-flight flits = 1729 (1729 measured)
latency change    = 0.000234898
throughput change = 0.000266878
Draining all recorded packets ...
Draining remaining packets ...
Time taken is 3047 cycles
====== Traffic class 0 ======
Overall minimum packet latency = 5 (1 samples)
Overall average packet latency = 16.6752 (1 samples)
Overall maximum packet latency = 33 (1 samples)
Overall minimum network latency = 5 (1 samples)
Overall average network latency = 16.6752 (1 samples)
Overall maximum network latency = 33 (1 samples)
Overall minimum flit latency = 5 (1 samples)
Overall average flit latency = 16.6781 (1 samples)
Overall maximum flit latency = 33 (1 samples)
Overall minimum fragmentation = 0 (1 samples)
Overall average fragmentation = 0 (1 samples)
Overall maximum fragmentation = 0 (1 samples)
Overall minimum injected packet rate = 0.364 (1 samples)
Overall average injected packet rate = 0.400297 (1 samples)
Overall maximum injected packet rate = 0.432 (1 samples)
Overall minimum accepted packet rate = 0.352667 (1 samples)
Overall average accepted packet rate = 0.400073 (1 samples)
Overall maximum accepted packet rate = 0.443333 (1 samples)
Overall minimum injected flit rate = 0.364 (1 samples)
Overall average injected flit rate = 0.400297 (1 samples)
Overall maximum injected flit rate = 0.432 (1 samples)
Overall minimum accepted flit rate = 0.352667 (1 samples)
Overall average accepted flit rate = 0.400073 (1 samples)
Overall maximum accepted flit rate = 0.443333 (1 samples)
Overall average injected packet size = 1 (1 samples)
Overall average accepted packet size = 1 (1 samples)
Overall average hops = 4.42115 (1 samples)
Total run time 14.4904
