BEGIN Configuration File: ./FBF-3.conf
injection_rate = 0.5;
traffic = uniform;
routing_function = adaptive_xyyx;
vc_buf_size = 16;
topology = flatfly;
use_noc_latency = 0;
hold_switch_for_packet=0;

c = 4;
k = 8;
n = 2;

x  = 8;
y  = 8;
xr = 2;
yr = 2;

packet_size  = 1;
num_vcs      = 2;
vc_allocator = separable_input_first; 
sw_allocator = separable_input_first;

alloc_iters   = 1;
sample_period = 500;

wait_for_tail_credit = 0;
use_read_write       = 0;

credit_delay   = 2;
routing_delay  = 0;
vc_alloc_delay = 1;
sw_alloc_delay = 1;
st_final_delay = 1;

input_speedup     = 1;
output_speedup    = 1;
internal_speedup  = 2.0;

warmup_periods = 3;
sim_count      = 1;

priority = none;
injection_rate_uses_flits=1;

END Configuration File: ./FBF-3.conf
Number of nodes: 256
Number of routers: 64
 Flat Bufferfly 
 k = 8 n = 2 c = 4
 each switch - total radix =  18
 # of switches = 64
 # of channels = 896
 # of nodes ( size of network ) = 256
0
Class 0:
Minimum packet latency = 5
Average packet latency = 11.022
Maximum packet latency = 20
Minimum network latency = 5
Average network latency = 11.022
Maximum network latency = 20
Slowest packet = 37929
Minimum flit latency = 5
Average flit latency = 11.022
Maximum flit latency = 20
Slowest flit = 37929
Minimum fragmentation = 0
Average fragmentation = 0
Maximum fragmentation = 0
Minimum injected packet rate = 0.426 (at node 110)
Average injected packet rate = 0.499609
Maximum injected packet rate = 0.562 (at node 22)
Minimum accepted packet rate = 0.4 (at node 40)
Average accepted packet rate = 0.488648
Maximum accepted packet rate = 0.574 (at node 65)
Minimum injected flit rate = 0.426 (at node 110)
Average injected flit rate = 0.499609
Maximum injected flit rate = 0.562 (at node 22)
Minimum accepted flit rate = 0.4 (at node 40)
Average accepted flit rate = 0.488648
Maximum accepted flit rate = 0.574 (at node 65)
Average injected packet length = 1
Average accepted packet length = 1
Total in-flight flits = 1403 (0 measured)
latency change    = 1
throughput change = 1
0
Class 0:
Minimum packet latency = 5
Average packet latency = 11.0345
Maximum packet latency = 21
Minimum network latency = 5
Average network latency = 11.0345
Maximum network latency = 21
Slowest packet = 91892
Minimum flit latency = 5
Average flit latency = 11.0345
Maximum flit latency = 21
Slowest flit = 91892
Minimum fragmentation = 0
Average fragmentation = 0
Maximum fragmentation = 0
Minimum injected packet rate = 0.448 (at node 173)
Average injected packet rate = 0.499969
Maximum injected packet rate = 0.541 (at node 74)
Minimum accepted packet rate = 0.434 (at node 145)
Average accepted packet rate = 0.494379
Maximum accepted packet rate = 0.553 (at node 9)
Minimum injected flit rate = 0.448 (at node 173)
Average injected flit rate = 0.499969
Maximum injected flit rate = 0.541 (at node 74)
Minimum accepted flit rate = 0.434 (at node 145)
Average accepted flit rate = 0.494379
Maximum accepted flit rate = 0.553 (at node 9)
Average injected packet length = 1
Average accepted packet length = 1
Total in-flight flits = 1431 (0 measured)
latency change    = 0.00113406
throughput change = 0.0115912
0
Class 0:
Minimum packet latency = 5
Average packet latency = 11.0482
Maximum packet latency = 21
Minimum network latency = 5
Average network latency = 11.0482
Maximum network latency = 21
Slowest packet = 130248
Minimum flit latency = 5
Average flit latency = 11.0482
Maximum flit latency = 21
Slowest flit = 130248
Minimum fragmentation = 0
Average fragmentation = 0
Maximum fragmentation = 0
Minimum injected packet rate = 0.444 (at node 152)
Average injected packet rate = 0.500117
Maximum injected packet rate = 0.562 (at node 51)
Minimum accepted packet rate = 0.418 (at node 166)
Average accepted packet rate = 0.500289
Maximum accepted packet rate = 0.596 (at node 252)
Minimum injected flit rate = 0.444 (at node 152)
Average injected flit rate = 0.500117
Maximum injected flit rate = 0.562 (at node 51)
Minimum accepted flit rate = 0.418 (at node 166)
Average accepted flit rate = 0.500289
Maximum accepted flit rate = 0.596 (at node 252)
Average injected packet length = 1
Average accepted packet length = 1
Total in-flight flits = 1409 (0 measured)
latency change    = 0.00124369
throughput change = 0.0118135
Warmed up ...Time used is 1500 cycles
1
Class 0:
Minimum packet latency = 5
Average packet latency = 11.0326
Maximum packet latency = 21
Minimum network latency = 5
Average network latency = 11.0326
Maximum network latency = 21
Slowest packet = 224354
Minimum flit latency = 5
Average flit latency = 11.0381
Maximum flit latency = 21
Slowest flit = 224354
Minimum fragmentation = 0
Average fragmentation = 0
Maximum fragmentation = 0
Minimum injected packet rate = 0.44 (at node 50)
Average injected packet rate = 0.501266
Maximum injected packet rate = 0.562 (at node 115)
Minimum accepted packet rate = 0.426 (at node 199)
Average accepted packet rate = 0.501242
Maximum accepted packet rate = 0.59 (at node 108)
Minimum injected flit rate = 0.44 (at node 50)
Average injected flit rate = 0.501266
Maximum injected flit rate = 0.562 (at node 115)
Minimum accepted flit rate = 0.426 (at node 199)
Average accepted flit rate = 0.501242
Maximum accepted flit rate = 0.59 (at node 108)
Average injected packet length = 1
Average accepted packet length = 1
Total in-flight flits = 1412 (1412 measured)
latency change    = 0.00141691
throughput change = 0.00190153
1
Class 0:
Minimum packet latency = 5
Average packet latency = 11.0343
Maximum packet latency = 22
Minimum network latency = 5
Average network latency = 11.0343
Maximum network latency = 22
Slowest packet = 258369
Minimum flit latency = 5
Average flit latency = 11.037
Maximum flit latency = 22
Slowest flit = 258369
Minimum fragmentation = 0
Average fragmentation = 0
Maximum fragmentation = 0
Minimum injected packet rate = 0.46 (at node 50)
Average injected packet rate = 0.500695
Maximum injected packet rate = 0.546 (at node 115)
Minimum accepted packet rate = 0.446 (at node 95)
Average accepted packet rate = 0.500898
Maximum accepted packet rate = 0.563 (at node 188)
Minimum injected flit rate = 0.46 (at node 50)
Average injected flit rate = 0.500695
Maximum injected flit rate = 0.546 (at node 115)
Minimum accepted flit rate = 0.446 (at node 95)
Average accepted flit rate = 0.500898
Maximum accepted flit rate = 0.563 (at node 188)
Average injected packet length = 1
Average accepted packet length = 1
Total in-flight flits = 1357 (1357 measured)
latency change    = 0.000152159
throughput change = 0.000686267
1
Class 0:
Minimum packet latency = 5
Average packet latency = 11.0343
Maximum packet latency = 22
Minimum network latency = 5
Average network latency = 11.0343
Maximum network latency = 22
Slowest packet = 258369
Minimum flit latency = 5
Average flit latency = 11.0362
Maximum flit latency = 22
Slowest flit = 258369
Minimum fragmentation = 0
Average fragmentation = 0
Maximum fragmentation = 0
Minimum injected packet rate = 0.465333 (at node 252)
Average injected packet rate = 0.500591
Maximum injected packet rate = 0.534 (at node 42)
Minimum accepted packet rate = 0.442 (at node 62)
Average accepted packet rate = 0.500526
Maximum accepted packet rate = 0.556 (at node 188)
Minimum injected flit rate = 0.465333 (at node 252)
Average injected flit rate = 0.500591
Maximum injected flit rate = 0.534 (at node 42)
Minimum accepted flit rate = 0.442 (at node 62)
Average accepted flit rate = 0.500526
Maximum accepted flit rate = 0.556 (at node 188)
Average injected packet length = 1
Average accepted packet length = 1
Total in-flight flits = 1434 (1434 measured)
latency change    = 5.10586e-06
throughput change = 0.000744009
Draining all recorded packets ...
Draining remaining packets ...
Time taken is 3035 cycles
====== Traffic class 0 ======
Overall minimum packet latency = 5 (1 samples)
Overall average packet latency = 11.037 (1 samples)
Overall maximum packet latency = 23 (1 samples)
Overall minimum network latency = 5 (1 samples)
Overall average network latency = 11.037 (1 samples)
Overall maximum network latency = 23 (1 samples)
Overall minimum flit latency = 5 (1 samples)
Overall average flit latency = 11.0385 (1 samples)
Overall maximum flit latency = 23 (1 samples)
Overall minimum fragmentation = 0 (1 samples)
Overall average fragmentation = 0 (1 samples)
Overall maximum fragmentation = 0 (1 samples)
Overall minimum injected packet rate = 0.465333 (1 samples)
Overall average injected packet rate = 0.500591 (1 samples)
Overall maximum injected packet rate = 0.534 (1 samples)
Overall minimum accepted packet rate = 0.442 (1 samples)
Overall average accepted packet rate = 0.500526 (1 samples)
Overall maximum accepted packet rate = 0.556 (1 samples)
Overall minimum injected flit rate = 0.465333 (1 samples)
Overall average injected flit rate = 0.500591 (1 samples)
Overall maximum injected flit rate = 0.534 (1 samples)
Overall minimum accepted flit rate = 0.442 (1 samples)
Overall average accepted flit rate = 0.500526 (1 samples)
Overall maximum accepted flit rate = 0.556 (1 samples)
Overall average injected packet size = 1 (1 samples)
Overall average accepted packet size = 1 (1 samples)
Overall average hops = 2.75031 (1 samples)
Total run time 12.2211
