BEGIN Configuration File: ./FBF-3.conf
injection_rate = 0.7;
traffic = uniform;
routing_function = xyyx;
vc_buf_size = 16;
topology = flatfly;
use_noc_latency = 0;
hold_switch_for_packet=0;

c = 4;
k = 8;
n = 2;

x  = 8;
y  = 8;
xr = 2;
yr = 2;

packet_size  = 1;
num_vcs      = 2;
vc_allocator = separable_input_first; 
sw_allocator = separable_input_first;

alloc_iters   = 1;
sample_period = 500;

wait_for_tail_credit = 0;
use_read_write       = 0;

credit_delay   = 2;
routing_delay  = 0;
vc_alloc_delay = 1;
sw_alloc_delay = 1;
st_final_delay = 1;

input_speedup     = 1;
output_speedup    = 1;
internal_speedup  = 2.0;

warmup_periods = 3;
sim_count      = 1;

priority = none;
injection_rate_uses_flits=1;

END Configuration File: ./FBF-3.conf
Number of nodes: 256
Number of routers: 64
 Flat Bufferfly 
 k = 8 n = 2 c = 4
 each switch - total radix =  18
 # of switches = 64
 # of channels = 896
 # of nodes ( size of network ) = 256
0
Class 0:
Minimum packet latency = 5
Average packet latency = 11.8229
Maximum packet latency = 35
Minimum network latency = 5
Average network latency = 11.8229
Maximum network latency = 35
Slowest packet = 79806
Minimum flit latency = 5
Average flit latency = 11.8229
Maximum flit latency = 35
Slowest flit = 79806
Minimum fragmentation = 0
Average fragmentation = 0
Maximum fragmentation = 0
Minimum injected packet rate = 0.64 (at node 172)
Average injected packet rate = 0.699727
Maximum injected packet rate = 0.752 (at node 70)
Minimum accepted packet rate = 0.57 (at node 125)
Average accepted packet rate = 0.683391
Maximum accepted packet rate = 0.77 (at node 1)
Minimum injected flit rate = 0.64 (at node 172)
Average injected flit rate = 0.699727
Maximum injected flit rate = 0.752 (at node 70)
Minimum accepted flit rate = 0.57 (at node 125)
Average accepted flit rate = 0.683391
Maximum accepted flit rate = 0.77 (at node 1)
Average injected packet length = 1
Average accepted packet length = 1
Total in-flight flits = 2091 (0 measured)
latency change    = 1
throughput change = 1
0
Class 0:
Minimum packet latency = 5
Average packet latency = 11.8412
Maximum packet latency = 35
Minimum network latency = 5
Average network latency = 11.8412
Maximum network latency = 35
Slowest packet = 79806
Minimum flit latency = 5
Average flit latency = 11.8412
Maximum flit latency = 35
Slowest flit = 79806
Minimum fragmentation = 0
Average fragmentation = 0
Maximum fragmentation = 0
Minimum injected packet rate = 0.652 (at node 172)
Average injected packet rate = 0.699313
Maximum injected packet rate = 0.736 (at node 26)
Minimum accepted packet rate = 0.618 (at node 11)
Average accepted packet rate = 0.691035
Maximum accepted packet rate = 0.762 (at node 3)
Minimum injected flit rate = 0.652 (at node 172)
Average injected flit rate = 0.699313
Maximum injected flit rate = 0.736 (at node 26)
Minimum accepted flit rate = 0.618 (at node 11)
Average accepted flit rate = 0.691035
Maximum accepted flit rate = 0.762 (at node 3)
Average injected packet length = 1
Average accepted packet length = 1
Total in-flight flits = 2119 (0 measured)
latency change    = 0.00154174
throughput change = 0.0110624
0
Class 0:
Minimum packet latency = 5
Average packet latency = 11.8291
Maximum packet latency = 25
Minimum network latency = 5
Average network latency = 11.8291
Maximum network latency = 25
Slowest packet = 178071
Minimum flit latency = 5
Average flit latency = 11.8291
Maximum flit latency = 25
Slowest flit = 178071
Minimum fragmentation = 0
Average fragmentation = 0
Maximum fragmentation = 0
Minimum injected packet rate = 0.632 (at node 57)
Average injected packet rate = 0.699133
Maximum injected packet rate = 0.754 (at node 51)
Minimum accepted packet rate = 0.602 (at node 126)
Average accepted packet rate = 0.699484
Maximum accepted packet rate = 0.794 (at node 9)
Minimum injected flit rate = 0.632 (at node 57)
Average injected flit rate = 0.699133
Maximum injected flit rate = 0.754 (at node 51)
Minimum accepted flit rate = 0.602 (at node 126)
Average accepted flit rate = 0.699484
Maximum accepted flit rate = 0.794 (at node 9)
Average injected packet length = 1
Average accepted packet length = 1
Total in-flight flits = 2074 (0 measured)
latency change    = 0.00102135
throughput change = 0.0120792
Warmed up ...Time used is 1500 cycles
1
Class 0:
Minimum packet latency = 5
Average packet latency = 11.8727
Maximum packet latency = 32
Minimum network latency = 5
Average network latency = 11.8727
Maximum network latency = 32
Slowest packet = 270174
Minimum flit latency = 5
Average flit latency = 11.8801
Maximum flit latency = 32
Slowest flit = 270174
Minimum fragmentation = 0
Average fragmentation = 0
Maximum fragmentation = 0
Minimum injected packet rate = 0.652 (at node 194)
Average injected packet rate = 0.699203
Maximum injected packet rate = 0.75 (at node 115)
Minimum accepted packet rate = 0.594 (at node 36)
Average accepted packet rate = 0.698484
Maximum accepted packet rate = 0.806 (at node 21)
Minimum injected flit rate = 0.652 (at node 194)
Average injected flit rate = 0.699203
Maximum injected flit rate = 0.75 (at node 115)
Minimum accepted flit rate = 0.594 (at node 36)
Average accepted flit rate = 0.698484
Maximum accepted flit rate = 0.806 (at node 21)
Average injected packet length = 1
Average accepted packet length = 1
Total in-flight flits = 2166 (2166 measured)
latency change    = 0.00367034
throughput change = 0.00143167
1
Class 0:
Minimum packet latency = 5
Average packet latency = 11.8627
Maximum packet latency = 32
Minimum network latency = 5
Average network latency = 11.8627
Maximum network latency = 32
Slowest packet = 270174
Minimum flit latency = 5
Average flit latency = 11.8665
Maximum flit latency = 32
Slowest flit = 270174
Minimum fragmentation = 0
Average fragmentation = 0
Maximum fragmentation = 0
Minimum injected packet rate = 0.663 (at node 39)
Average injected packet rate = 0.698973
Maximum injected packet rate = 0.738 (at node 115)
Minimum accepted packet rate = 0.631 (at node 109)
Average accepted packet rate = 0.698816
Maximum accepted packet rate = 0.769 (at node 156)
Minimum injected flit rate = 0.663 (at node 39)
Average injected flit rate = 0.698973
Maximum injected flit rate = 0.738 (at node 115)
Minimum accepted flit rate = 0.631 (at node 109)
Average accepted flit rate = 0.698816
Maximum accepted flit rate = 0.769 (at node 156)
Average injected packet length = 1
Average accepted packet length = 1
Total in-flight flits = 2114 (2114 measured)
latency change    = 0.000843382
throughput change = 0.000475134
1
Class 0:
Minimum packet latency = 5
Average packet latency = 11.8542
Maximum packet latency = 32
Minimum network latency = 5
Average network latency = 11.8542
Maximum network latency = 32
Slowest packet = 270174
Minimum flit latency = 5
Average flit latency = 11.8568
Maximum flit latency = 32
Slowest flit = 270174
Minimum fragmentation = 0
Average fragmentation = 0
Maximum fragmentation = 0
Minimum injected packet rate = 0.66 (at node 146)
Average injected packet rate = 0.699326
Maximum injected packet rate = 0.736 (at node 149)
Minimum accepted packet rate = 0.648 (at node 146)
Average accepted packet rate = 0.699193
Maximum accepted packet rate = 0.763333 (at node 156)
Minimum injected flit rate = 0.66 (at node 146)
Average injected flit rate = 0.699326
Maximum injected flit rate = 0.736 (at node 149)
Minimum accepted flit rate = 0.648 (at node 146)
Average accepted flit rate = 0.699193
Maximum accepted flit rate = 0.763333 (at node 156)
Average injected packet length = 1
Average accepted packet length = 1
Total in-flight flits = 2125 (2125 measured)
latency change    = 0.000712355
throughput change = 0.000538195
Draining all recorded packets ...
Draining remaining packets ...
Time taken is 3040 cycles
====== Traffic class 0 ======
Overall minimum packet latency = 5 (1 samples)
Overall average packet latency = 11.8569 (1 samples)
Overall maximum packet latency = 32 (1 samples)
Overall minimum network latency = 5 (1 samples)
Overall average network latency = 11.8569 (1 samples)
Overall maximum network latency = 32 (1 samples)
Overall minimum flit latency = 5 (1 samples)
Overall average flit latency = 11.8575 (1 samples)
Overall maximum flit latency = 32 (1 samples)
Overall minimum fragmentation = 0 (1 samples)
Overall average fragmentation = 0 (1 samples)
Overall maximum fragmentation = 0 (1 samples)
Overall minimum injected packet rate = 0.66 (1 samples)
Overall average injected packet rate = 0.699326 (1 samples)
Overall maximum injected packet rate = 0.736 (1 samples)
Overall minimum accepted packet rate = 0.648 (1 samples)
Overall average accepted packet rate = 0.699193 (1 samples)
Overall maximum accepted packet rate = 0.763333 (1 samples)
Overall minimum injected flit rate = 0.66 (1 samples)
Overall average injected flit rate = 0.699326 (1 samples)
Overall maximum injected flit rate = 0.736 (1 samples)
Overall minimum accepted flit rate = 0.648 (1 samples)
Overall average accepted flit rate = 0.699193 (1 samples)
Overall maximum accepted flit rate = 0.763333 (1 samples)
Overall average injected packet size = 1 (1 samples)
Overall average accepted packet size = 1 (1 samples)
Overall average hops = 2.75049 (1 samples)
Total run time 16.6822
