BEGIN Configuration File: ./FBF-3.conf
injection_rate = 0.7;
traffic = uniform;
routing_function = ran_min;
vc_buf_size = 16;
topology = flatfly;
use_noc_latency = 0;
hold_switch_for_packet=0;

c = 4;
k = 8;
n = 2;

x  = 8;
y  = 8;
xr = 2;
yr = 2;

packet_size  = 1;
num_vcs      = 2;
vc_allocator = separable_input_first; 
sw_allocator = separable_input_first;

alloc_iters   = 1;
sample_period = 500;

wait_for_tail_credit = 0;
use_read_write       = 0;

credit_delay   = 2;
routing_delay  = 0;
vc_alloc_delay = 1;
sw_alloc_delay = 1;
st_final_delay = 1;

input_speedup     = 1;
output_speedup    = 1;
internal_speedup  = 2.0;

warmup_periods = 3;
sim_count      = 1;

priority = none;
injection_rate_uses_flits=1;

END Configuration File: ./FBF-3.conf
Number of nodes: 256
Number of routers: 64
 Flat Bufferfly 
 k = 8 n = 2 c = 4
 each switch - total radix =  18
 # of switches = 64
 # of channels = 896
 # of nodes ( size of network ) = 256
0
Class 0:
Minimum packet latency = 5
Average packet latency = 11.7508
Maximum packet latency = 26
Minimum network latency = 5
Average network latency = 11.7508
Maximum network latency = 26
Slowest packet = 9889
Minimum flit latency = 5
Average flit latency = 11.7508
Maximum flit latency = 26
Slowest flit = 9889
Minimum fragmentation = 0
Average fragmentation = 0
Maximum fragmentation = 0
Minimum injected packet rate = 0.64 (at node 172)
Average injected packet rate = 0.699727
Maximum injected packet rate = 0.752 (at node 70)
Minimum accepted packet rate = 0.584 (at node 100)
Average accepted packet rate = 0.683203
Maximum accepted packet rate = 0.784 (at node 147)
Minimum injected flit rate = 0.64 (at node 172)
Average injected flit rate = 0.699727
Maximum injected flit rate = 0.752 (at node 70)
Minimum accepted flit rate = 0.584 (at node 100)
Average accepted flit rate = 0.683203
Maximum accepted flit rate = 0.784 (at node 147)
Average injected packet length = 1
Average accepted packet length = 1
Total in-flight flits = 2115 (0 measured)
latency change    = 1
throughput change = 1
0
Class 0:
Minimum packet latency = 5
Average packet latency = 11.7426
Maximum packet latency = 26
Minimum network latency = 5
Average network latency = 11.7426
Maximum network latency = 26
Slowest packet = 9889
Minimum flit latency = 5
Average flit latency = 11.7426
Maximum flit latency = 26
Slowest flit = 9889
Minimum fragmentation = 0
Average fragmentation = 0
Maximum fragmentation = 0
Minimum injected packet rate = 0.652 (at node 172)
Average injected packet rate = 0.699313
Maximum injected packet rate = 0.736 (at node 26)
Minimum accepted packet rate = 0.622 (at node 110)
Average accepted packet rate = 0.691074
Maximum accepted packet rate = 0.76 (at node 65)
Minimum injected flit rate = 0.652 (at node 172)
Average injected flit rate = 0.699313
Maximum injected flit rate = 0.736 (at node 26)
Minimum accepted flit rate = 0.622 (at node 110)
Average accepted flit rate = 0.691074
Maximum accepted flit rate = 0.76 (at node 65)
Average injected packet length = 1
Average accepted packet length = 1
Total in-flight flits = 2109 (0 measured)
latency change    = 0.000694981
throughput change = 0.0113897
0
Class 0:
Minimum packet latency = 5
Average packet latency = 11.7505
Maximum packet latency = 25
Minimum network latency = 5
Average network latency = 11.7505
Maximum network latency = 25
Slowest packet = 252111
Minimum flit latency = 5
Average flit latency = 11.7505
Maximum flit latency = 25
Slowest flit = 252111
Minimum fragmentation = 0
Average fragmentation = 0
Maximum fragmentation = 0
Minimum injected packet rate = 0.632 (at node 57)
Average injected packet rate = 0.699133
Maximum injected packet rate = 0.754 (at node 51)
Minimum accepted packet rate = 0.612 (at node 236)
Average accepted packet rate = 0.699328
Maximum accepted packet rate = 0.796 (at node 156)
Minimum injected flit rate = 0.632 (at node 57)
Average injected flit rate = 0.699133
Maximum injected flit rate = 0.754 (at node 51)
Minimum accepted flit rate = 0.612 (at node 236)
Average accepted flit rate = 0.699328
Maximum accepted flit rate = 0.796 (at node 156)
Average injected packet length = 1
Average accepted packet length = 1
Total in-flight flits = 2084 (0 measured)
latency change    = 0.000671156
throughput change = 0.0118026
Warmed up ...Time used is 1500 cycles
1
Class 0:
Minimum packet latency = 5
Average packet latency = 11.7702
Maximum packet latency = 25
Minimum network latency = 5
Average network latency = 11.7702
Maximum network latency = 25
Slowest packet = 273851
Minimum flit latency = 5
Average flit latency = 11.7799
Maximum flit latency = 25
Slowest flit = 273851
Minimum fragmentation = 0
Average fragmentation = 0
Maximum fragmentation = 0
Minimum injected packet rate = 0.652 (at node 194)
Average injected packet rate = 0.699203
Maximum injected packet rate = 0.75 (at node 115)
Minimum accepted packet rate = 0.574 (at node 21)
Average accepted packet rate = 0.698844
Maximum accepted packet rate = 0.808 (at node 180)
Minimum injected flit rate = 0.652 (at node 194)
Average injected flit rate = 0.699203
Maximum injected flit rate = 0.75 (at node 115)
Minimum accepted flit rate = 0.574 (at node 21)
Average accepted flit rate = 0.698844
Maximum accepted flit rate = 0.808 (at node 180)
Average injected packet length = 1
Average accepted packet length = 1
Total in-flight flits = 2130 (2130 measured)
latency change    = 0.00167313
throughput change = 0.000693109
1
Class 0:
Minimum packet latency = 5
Average packet latency = 11.7887
Maximum packet latency = 28
Minimum network latency = 5
Average network latency = 11.7887
Maximum network latency = 28
Slowest packet = 391213
Minimum flit latency = 5
Average flit latency = 11.7934
Maximum flit latency = 28
Slowest flit = 391213
Minimum fragmentation = 0
Average fragmentation = 0
Maximum fragmentation = 0
Minimum injected packet rate = 0.663 (at node 39)
Average injected packet rate = 0.698973
Maximum injected packet rate = 0.738 (at node 115)
Minimum accepted packet rate = 0.645 (at node 146)
Average accepted packet rate = 0.698809
Maximum accepted packet rate = 0.798 (at node 244)
Minimum injected flit rate = 0.663 (at node 39)
Average injected flit rate = 0.698973
Maximum injected flit rate = 0.738 (at node 115)
Minimum accepted flit rate = 0.645 (at node 146)
Average accepted flit rate = 0.698809
Maximum accepted flit rate = 0.798 (at node 244)
Average injected packet length = 1
Average accepted packet length = 1
Total in-flight flits = 2126 (2126 measured)
latency change    = 0.0015726
throughput change = 5.03088e-05
1
Class 0:
Minimum packet latency = 5
Average packet latency = 11.7869
Maximum packet latency = 29
Minimum network latency = 5
Average network latency = 11.7869
Maximum network latency = 29
Slowest packet = 508194
Minimum flit latency = 5
Average flit latency = 11.79
Maximum flit latency = 29
Slowest flit = 508194
Minimum fragmentation = 0
Average fragmentation = 0
Maximum fragmentation = 0
Minimum injected packet rate = 0.66 (at node 146)
Average injected packet rate = 0.699326
Maximum injected packet rate = 0.736 (at node 149)
Minimum accepted packet rate = 0.643333 (at node 62)
Average accepted packet rate = 0.699208
Maximum accepted packet rate = 0.766667 (at node 244)
Minimum injected flit rate = 0.66 (at node 146)
Average injected flit rate = 0.699326
Maximum injected flit rate = 0.736 (at node 149)
Minimum accepted flit rate = 0.643333 (at node 62)
Average accepted flit rate = 0.699208
Maximum accepted flit rate = 0.766667 (at node 244)
Average injected packet length = 1
Average accepted packet length = 1
Total in-flight flits = 2129 (2129 measured)
latency change    = 0.000150919
throughput change = 0.000571703
Draining all recorded packets ...
Draining remaining packets ...
Time taken is 3050 cycles
====== Traffic class 0 ======
Overall minimum packet latency = 5 (1 samples)
Overall average packet latency = 11.7921 (1 samples)
Overall maximum packet latency = 29 (1 samples)
Overall minimum network latency = 5 (1 samples)
Overall average network latency = 11.7921 (1 samples)
Overall maximum network latency = 29 (1 samples)
Overall minimum flit latency = 5 (1 samples)
Overall average flit latency = 11.7953 (1 samples)
Overall maximum flit latency = 29 (1 samples)
Overall minimum fragmentation = 0 (1 samples)
Overall average fragmentation = 0 (1 samples)
Overall maximum fragmentation = 0 (1 samples)
Overall minimum injected packet rate = 0.66 (1 samples)
Overall average injected packet rate = 0.699326 (1 samples)
Overall maximum injected packet rate = 0.736 (1 samples)
Overall minimum accepted packet rate = 0.643333 (1 samples)
Overall average accepted packet rate = 0.699208 (1 samples)
Overall maximum accepted packet rate = 0.766667 (1 samples)
Overall minimum injected flit rate = 0.66 (1 samples)
Overall average injected flit rate = 0.699326 (1 samples)
Overall maximum injected flit rate = 0.736 (1 samples)
Overall minimum accepted flit rate = 0.643333 (1 samples)
Overall average accepted flit rate = 0.699208 (1 samples)
Overall maximum accepted flit rate = 0.766667 (1 samples)
Overall average injected packet size = 1 (1 samples)
Overall average accepted packet size = 1 (1 samples)
Overall average hops = 2.75172 (1 samples)
Total run time 18.0713
