BEGIN Configuration File: ./FBF-3.conf
injection_rate = 0.2;
traffic = asymmetric;
routing_function = adaptive_xyyx;
vc_buf_size = 16;
topology = flatfly;
use_noc_latency = 0;
hold_switch_for_packet=0;

c = 4;
k = 8;
n = 2;

x  = 8;
y  = 8;
xr = 2;
yr = 2;

packet_size  = 1;
num_vcs      = 2;
vc_allocator = separable_input_first; 
sw_allocator = separable_input_first;

alloc_iters   = 1;
sample_period = 500;

wait_for_tail_credit = 0;
use_read_write       = 0;

credit_delay   = 2;
routing_delay  = 0;
vc_alloc_delay = 1;
sw_alloc_delay = 1;
st_final_delay = 1;

input_speedup     = 1;
output_speedup    = 1;
internal_speedup  = 2.0;

warmup_periods = 3;
sim_count      = 1;

priority = none;
injection_rate_uses_flits=1;

END Configuration File: ./FBF-3.conf
Number of nodes: 256
Number of routers: 64
 Flat Bufferfly 
 k = 8 n = 2 c = 4
 each switch - total radix =  18
 # of switches = 64
 # of channels = 896
 # of nodes ( size of network ) = 256
0
Class 0:
Minimum packet latency = 5
Average packet latency = 6.6894
Maximum packet latency = 13
Minimum network latency = 5
Average network latency = 6.6894
Maximum network latency = 13
Slowest packet = 6228
Minimum flit latency = 5
Average flit latency = 6.6894
Maximum flit latency = 13
Slowest flit = 6228
Minimum fragmentation = 0
Average fragmentation = 0
Maximum fragmentation = 0
Minimum injected packet rate = 0.158 (at node 1)
Average injected packet rate = 0.198797
Maximum injected packet rate = 0.254 (at node 239)
Minimum accepted packet rate = 0.14 (at node 142)
Average accepted packet rate = 0.196195
Maximum accepted packet rate = 0.252 (at node 239)
Minimum injected flit rate = 0.158 (at node 1)
Average injected flit rate = 0.198797
Maximum injected flit rate = 0.254 (at node 239)
Minimum accepted flit rate = 0.14 (at node 142)
Average accepted flit rate = 0.196195
Maximum accepted flit rate = 0.252 (at node 239)
Average injected packet length = 1
Average accepted packet length = 1
Total in-flight flits = 333 (0 measured)
latency change    = 1
throughput change = 1
0
Class 0:
Minimum packet latency = 5
Average packet latency = 6.68203
Maximum packet latency = 13
Minimum network latency = 5
Average network latency = 6.68203
Maximum network latency = 13
Slowest packet = 6228
Minimum flit latency = 5
Average flit latency = 6.68203
Maximum flit latency = 13
Slowest flit = 6228
Minimum fragmentation = 0
Average fragmentation = 0
Maximum fragmentation = 0
Minimum injected packet rate = 0.17 (at node 104)
Average injected packet rate = 0.199156
Maximum injected packet rate = 0.232 (at node 22)
Minimum accepted packet rate = 0.162 (at node 182)
Average accepted packet rate = 0.197664
Maximum accepted packet rate = 0.248 (at node 239)
Minimum injected flit rate = 0.17 (at node 104)
Average injected flit rate = 0.199156
Maximum injected flit rate = 0.232 (at node 22)
Minimum accepted flit rate = 0.162 (at node 182)
Average accepted flit rate = 0.197664
Maximum accepted flit rate = 0.248 (at node 239)
Average injected packet length = 1
Average accepted packet length = 1
Total in-flight flits = 382 (0 measured)
latency change    = 0.00110378
throughput change = 0.00743054
0
Class 0:
Minimum packet latency = 5
Average packet latency = 6.66604
Maximum packet latency = 13
Minimum network latency = 5
Average network latency = 6.66604
Maximum network latency = 13
Slowest packet = 59350
Minimum flit latency = 5
Average flit latency = 6.66604
Maximum flit latency = 13
Slowest flit = 59350
Minimum fragmentation = 0
Average fragmentation = 0
Maximum fragmentation = 0
Minimum injected packet rate = 0.148 (at node 29)
Average injected packet rate = 0.199695
Maximum injected packet rate = 0.264 (at node 39)
Minimum accepted packet rate = 0.142 (at node 29)
Average accepted packet rate = 0.200203
Maximum accepted packet rate = 0.248 (at node 229)
Minimum injected flit rate = 0.148 (at node 29)
Average injected flit rate = 0.199695
Maximum injected flit rate = 0.264 (at node 39)
Minimum accepted flit rate = 0.142 (at node 29)
Average accepted flit rate = 0.200203
Maximum accepted flit rate = 0.248 (at node 229)
Average injected packet length = 1
Average accepted packet length = 1
Total in-flight flits = 317 (0 measured)
latency change    = 0.00239814
throughput change = 0.0126824
Warmed up ...Time used is 1500 cycles
1
Class 0:
Minimum packet latency = 5
Average packet latency = 6.70255
Maximum packet latency = 13
Minimum network latency = 5
Average network latency = 6.70255
Maximum network latency = 13
Slowest packet = 88130
Minimum flit latency = 5
Average flit latency = 6.70727
Maximum flit latency = 13
Slowest flit = 88130
Minimum fragmentation = 0
Average fragmentation = 0
Maximum fragmentation = 0
Minimum injected packet rate = 0.142 (at node 174)
Average injected packet rate = 0.1995
Maximum injected packet rate = 0.252 (at node 122)
Minimum accepted packet rate = 0.144 (at node 63)
Average accepted packet rate = 0.199359
Maximum accepted packet rate = 0.26 (at node 87)
Minimum injected flit rate = 0.142 (at node 174)
Average injected flit rate = 0.1995
Maximum injected flit rate = 0.252 (at node 122)
Minimum accepted flit rate = 0.144 (at node 63)
Average accepted flit rate = 0.199359
Maximum accepted flit rate = 0.26 (at node 87)
Average injected packet length = 1
Average accepted packet length = 1
Total in-flight flits = 335 (335 measured)
latency change    = 0.00544706
throughput change = 0.00423231
1
Class 0:
Minimum packet latency = 5
Average packet latency = 6.70225
Maximum packet latency = 14
Minimum network latency = 5
Average network latency = 6.70225
Maximum network latency = 14
Slowest packet = 101941
Minimum flit latency = 5
Average flit latency = 6.70459
Maximum flit latency = 14
Slowest flit = 101941
Minimum fragmentation = 0
Average fragmentation = 0
Maximum fragmentation = 0
Minimum injected packet rate = 0.165 (at node 191)
Average injected packet rate = 0.200563
Maximum injected packet rate = 0.24 (at node 53)
Minimum accepted packet rate = 0.15 (at node 63)
Average accepted packet rate = 0.200543
Maximum accepted packet rate = 0.237 (at node 78)
Minimum injected flit rate = 0.165 (at node 191)
Average injected flit rate = 0.200563
Maximum injected flit rate = 0.24 (at node 53)
Minimum accepted flit rate = 0.15 (at node 63)
Average accepted flit rate = 0.200543
Maximum accepted flit rate = 0.237 (at node 78)
Average injected packet length = 1
Average accepted packet length = 1
Total in-flight flits = 322 (322 measured)
latency change    = 4.55662e-05
throughput change = 0.00590195
1
Class 0:
Minimum packet latency = 5
Average packet latency = 6.68973
Maximum packet latency = 14
Minimum network latency = 5
Average network latency = 6.68973
Maximum network latency = 14
Slowest packet = 101941
Minimum flit latency = 5
Average flit latency = 6.69135
Maximum flit latency = 14
Slowest flit = 101941
Minimum fragmentation = 0
Average fragmentation = 0
Maximum fragmentation = 0
Minimum injected packet rate = 0.169333 (at node 174)
Average injected packet rate = 0.200125
Maximum injected packet rate = 0.230667 (at node 163)
Minimum accepted packet rate = 0.166 (at node 252)
Average accepted packet rate = 0.200036
Maximum accepted packet rate = 0.231333 (at node 13)
Minimum injected flit rate = 0.169333 (at node 174)
Average injected flit rate = 0.200125
Maximum injected flit rate = 0.230667 (at node 163)
Minimum accepted flit rate = 0.166 (at node 252)
Average accepted flit rate = 0.200036
Maximum accepted flit rate = 0.231333 (at node 13)
Average injected packet length = 1
Average accepted packet length = 1
Total in-flight flits = 351 (351 measured)
latency change    = 0.00187148
throughput change = 0.00253209
Draining all recorded packets ...
Draining remaining packets ...
Time taken is 3025 cycles
====== Traffic class 0 ======
Overall minimum packet latency = 5 (1 samples)
Overall average packet latency = 6.69209 (1 samples)
Overall maximum packet latency = 14 (1 samples)
Overall minimum network latency = 5 (1 samples)
Overall average network latency = 6.69209 (1 samples)
Overall maximum network latency = 14 (1 samples)
Overall minimum flit latency = 5 (1 samples)
Overall average flit latency = 6.6935 (1 samples)
Overall maximum flit latency = 14 (1 samples)
Overall minimum fragmentation = 0 (1 samples)
Overall average fragmentation = 0 (1 samples)
Overall maximum fragmentation = 0 (1 samples)
Overall minimum injected packet rate = 0.169333 (1 samples)
Overall average injected packet rate = 0.200125 (1 samples)
Overall maximum injected packet rate = 0.230667 (1 samples)
Overall minimum accepted packet rate = 0.166 (1 samples)
Overall average accepted packet rate = 0.200036 (1 samples)
Overall maximum accepted packet rate = 0.231333 (1 samples)
Overall minimum injected flit rate = 0.169333 (1 samples)
Overall average injected flit rate = 0.200125 (1 samples)
Overall maximum injected flit rate = 0.230667 (1 samples)
Overall minimum accepted flit rate = 0.166 (1 samples)
Overall average accepted flit rate = 0.200036 (1 samples)
Overall maximum accepted flit rate = 0.231333 (1 samples)
Overall average injected packet size = 1 (1 samples)
Overall average accepted packet size = 1 (1 samples)
Overall average hops = 1.50111 (1 samples)
Total run time 4.1801
