BEGIN Configuration File: ./FBF-3.conf
injection_rate = 0.2;
traffic = asymmetric;
routing_function = ran_min;
vc_buf_size = 16;
topology = flatfly;
use_noc_latency = 0;
hold_switch_for_packet=0;

c = 4;
k = 8;
n = 2;

x  = 8;
y  = 8;
xr = 2;
yr = 2;

packet_size  = 1;
num_vcs      = 2;
vc_allocator = separable_input_first; 
sw_allocator = separable_input_first;

alloc_iters   = 1;
sample_period = 500;

wait_for_tail_credit = 0;
use_read_write       = 0;

credit_delay   = 2;
routing_delay  = 0;
vc_alloc_delay = 1;
sw_alloc_delay = 1;
st_final_delay = 1;

input_speedup     = 1;
output_speedup    = 1;
internal_speedup  = 2.0;

warmup_periods = 3;
sim_count      = 1;

priority = none;
injection_rate_uses_flits=1;

END Configuration File: ./FBF-3.conf
Number of nodes: 256
Number of routers: 64
 Flat Bufferfly 
 k = 8 n = 2 c = 4
 each switch - total radix =  18
 # of switches = 64
 # of channels = 896
 # of nodes ( size of network ) = 256
0
Class 0:
Minimum packet latency = 5
Average packet latency = 6.67361
Maximum packet latency = 13
Minimum network latency = 5
Average network latency = 6.67361
Maximum network latency = 13
Slowest packet = 20756
Minimum flit latency = 5
Average flit latency = 6.67361
Maximum flit latency = 13
Slowest flit = 20756
Minimum fragmentation = 0
Average fragmentation = 0
Maximum fragmentation = 0
Minimum injected packet rate = 0.158 (at node 1)
Average injected packet rate = 0.198797
Maximum injected packet rate = 0.254 (at node 239)
Minimum accepted packet rate = 0.142 (at node 72)
Average accepted packet rate = 0.19618
Maximum accepted packet rate = 0.258 (at node 82)
Minimum injected flit rate = 0.158 (at node 1)
Average injected flit rate = 0.198797
Maximum injected flit rate = 0.254 (at node 239)
Minimum accepted flit rate = 0.142 (at node 72)
Average accepted flit rate = 0.19618
Maximum accepted flit rate = 0.258 (at node 82)
Average injected packet length = 1
Average accepted packet length = 1
Total in-flight flits = 335 (0 measured)
latency change    = 1
throughput change = 1
0
Class 0:
Minimum packet latency = 5
Average packet latency = 6.68981
Maximum packet latency = 13
Minimum network latency = 5
Average network latency = 6.68981
Maximum network latency = 13
Slowest packet = 20756
Minimum flit latency = 5
Average flit latency = 6.68981
Maximum flit latency = 13
Slowest flit = 20756
Minimum fragmentation = 0
Average fragmentation = 0
Maximum fragmentation = 0
Minimum injected packet rate = 0.17 (at node 104)
Average injected packet rate = 0.199156
Maximum injected packet rate = 0.232 (at node 22)
Minimum accepted packet rate = 0.156 (at node 52)
Average accepted packet rate = 0.19766
Maximum accepted packet rate = 0.242 (at node 200)
Minimum injected flit rate = 0.17 (at node 104)
Average injected flit rate = 0.199156
Maximum injected flit rate = 0.232 (at node 22)
Minimum accepted flit rate = 0.156 (at node 52)
Average accepted flit rate = 0.19766
Maximum accepted flit rate = 0.242 (at node 200)
Average injected packet length = 1
Average accepted packet length = 1
Total in-flight flits = 383 (0 measured)
latency change    = 0.00242149
throughput change = 0.00748997
0
Class 0:
Minimum packet latency = 5
Average packet latency = 6.68103
Maximum packet latency = 12
Minimum network latency = 5
Average network latency = 6.68103
Maximum network latency = 12
Slowest packet = 50413
Minimum flit latency = 5
Average flit latency = 6.68103
Maximum flit latency = 12
Slowest flit = 50413
Minimum fragmentation = 0
Average fragmentation = 0
Maximum fragmentation = 0
Minimum injected packet rate = 0.148 (at node 29)
Average injected packet rate = 0.199695
Maximum injected packet rate = 0.264 (at node 39)
Minimum accepted packet rate = 0.138 (at node 114)
Average accepted packet rate = 0.200109
Maximum accepted packet rate = 0.248 (at node 40)
Minimum injected flit rate = 0.148 (at node 29)
Average injected flit rate = 0.199695
Maximum injected flit rate = 0.264 (at node 39)
Minimum accepted flit rate = 0.138 (at node 114)
Average accepted flit rate = 0.200109
Maximum accepted flit rate = 0.248 (at node 40)
Average injected packet length = 1
Average accepted packet length = 1
Total in-flight flits = 330 (0 measured)
latency change    = 0.00131337
throughput change = 0.0122394
Warmed up ...Time used is 1500 cycles
1
Class 0:
Minimum packet latency = 5
Average packet latency = 6.69
Maximum packet latency = 13
Minimum network latency = 5
Average network latency = 6.69
Maximum network latency = 13
Slowest packet = 88072
Minimum flit latency = 5
Average flit latency = 6.69491
Maximum flit latency = 13
Slowest flit = 88072
Minimum fragmentation = 0
Average fragmentation = 0
Maximum fragmentation = 0
Minimum injected packet rate = 0.142 (at node 174)
Average injected packet rate = 0.1995
Maximum injected packet rate = 0.252 (at node 122)
Minimum accepted packet rate = 0.146 (at node 40)
Average accepted packet rate = 0.199375
Maximum accepted packet rate = 0.254 (at node 235)
Minimum injected flit rate = 0.142 (at node 174)
Average injected flit rate = 0.1995
Maximum injected flit rate = 0.252 (at node 122)
Minimum accepted flit rate = 0.146 (at node 40)
Average accepted flit rate = 0.199375
Maximum accepted flit rate = 0.254 (at node 235)
Average injected packet length = 1
Average accepted packet length = 1
Total in-flight flits = 346 (346 measured)
latency change    = 0.00133965
throughput change = 0.00368339
1
Class 0:
Minimum packet latency = 5
Average packet latency = 6.68073
Maximum packet latency = 13
Minimum network latency = 5
Average network latency = 6.68073
Maximum network latency = 13
Slowest packet = 88072
Minimum flit latency = 5
Average flit latency = 6.68322
Maximum flit latency = 13
Slowest flit = 88072
Minimum fragmentation = 0
Average fragmentation = 0
Maximum fragmentation = 0
Minimum injected packet rate = 0.165 (at node 191)
Average injected packet rate = 0.200563
Maximum injected packet rate = 0.24 (at node 53)
Minimum accepted packet rate = 0.164 (at node 189)
Average accepted packet rate = 0.200605
Maximum accepted packet rate = 0.245 (at node 206)
Minimum injected flit rate = 0.165 (at node 191)
Average injected flit rate = 0.200563
Maximum injected flit rate = 0.24 (at node 53)
Minimum accepted flit rate = 0.164 (at node 189)
Average accepted flit rate = 0.200605
Maximum accepted flit rate = 0.245 (at node 206)
Average injected packet length = 1
Average accepted packet length = 1
Total in-flight flits = 319 (319 measured)
latency change    = 0.00138771
throughput change = 0.00613377
1
Class 0:
Minimum packet latency = 5
Average packet latency = 6.682
Maximum packet latency = 13
Minimum network latency = 5
Average network latency = 6.682
Maximum network latency = 13
Slowest packet = 88072
Minimum flit latency = 5
Average flit latency = 6.68367
Maximum flit latency = 13
Slowest flit = 88072
Minimum fragmentation = 0
Average fragmentation = 0
Maximum fragmentation = 0
Minimum injected packet rate = 0.169333 (at node 174)
Average injected packet rate = 0.200125
Maximum injected packet rate = 0.230667 (at node 163)
Minimum accepted packet rate = 0.166 (at node 213)
Average accepted packet rate = 0.200081
Maximum accepted packet rate = 0.236667 (at node 206)
Minimum injected flit rate = 0.169333 (at node 174)
Average injected flit rate = 0.200125
Maximum injected flit rate = 0.230667 (at node 163)
Minimum accepted flit rate = 0.166 (at node 213)
Average accepted flit rate = 0.200081
Maximum accepted flit rate = 0.236667 (at node 206)
Average injected packet length = 1
Average accepted packet length = 1
Total in-flight flits = 347 (347 measured)
latency change    = 0.000191413
throughput change = 0.00262264
Draining all recorded packets ...
Draining remaining packets ...
Time taken is 3023 cycles
====== Traffic class 0 ======
Overall minimum packet latency = 5 (1 samples)
Overall average packet latency = 6.6839 (1 samples)
Overall maximum packet latency = 13 (1 samples)
Overall minimum network latency = 5 (1 samples)
Overall average network latency = 6.6839 (1 samples)
Overall maximum network latency = 13 (1 samples)
Overall minimum flit latency = 5 (1 samples)
Overall average flit latency = 6.68613 (1 samples)
Overall maximum flit latency = 13 (1 samples)
Overall minimum fragmentation = 0 (1 samples)
Overall average fragmentation = 0 (1 samples)
Overall maximum fragmentation = 0 (1 samples)
Overall minimum injected packet rate = 0.169333 (1 samples)
Overall average injected packet rate = 0.200125 (1 samples)
Overall maximum injected packet rate = 0.230667 (1 samples)
Overall minimum accepted packet rate = 0.166 (1 samples)
Overall average accepted packet rate = 0.200081 (1 samples)
Overall maximum accepted packet rate = 0.236667 (1 samples)
Overall minimum injected flit rate = 0.169333 (1 samples)
Overall average injected flit rate = 0.200125 (1 samples)
Overall maximum injected flit rate = 0.230667 (1 samples)
Overall minimum accepted flit rate = 0.166 (1 samples)
Overall average accepted flit rate = 0.200081 (1 samples)
Overall maximum accepted flit rate = 0.236667 (1 samples)
Overall average injected packet size = 1 (1 samples)
Overall average accepted packet size = 1 (1 samples)
Overall average hops = 1.49895 (1 samples)
Total run time 4.23574
