BEGIN Configuration File: ./FBF-3.conf
injection_rate = 0.3;
traffic = uniform;
routing_function = xyyx;
vc_buf_size = 16;
topology = flatfly;
use_noc_latency = 0;
hold_switch_for_packet=0;

c = 4;
k = 8;
n = 2;

x  = 8;
y  = 8;
xr = 2;
yr = 2;

packet_size  = 1;
num_vcs      = 2;
vc_allocator = separable_input_first; 
sw_allocator = separable_input_first;

alloc_iters   = 1;
sample_period = 500;

wait_for_tail_credit = 0;
use_read_write       = 0;

credit_delay   = 2;
routing_delay  = 0;
vc_alloc_delay = 1;
sw_alloc_delay = 1;
st_final_delay = 1;

input_speedup     = 1;
output_speedup    = 1;
internal_speedup  = 2.0;

warmup_periods = 3;
sim_count      = 1;

priority = none;
injection_rate_uses_flits=1;

END Configuration File: ./FBF-3.conf
Number of nodes: 256
Number of routers: 64
 Flat Bufferfly 
 k = 8 n = 2 c = 4
 each switch - total radix =  18
 # of switches = 64
 # of channels = 896
 # of nodes ( size of network ) = 256
0
Class 0:
Minimum packet latency = 5
Average packet latency = 10.5954
Maximum packet latency = 20
Minimum network latency = 5
Average network latency = 10.5954
Maximum network latency = 20
Slowest packet = 11220
Minimum flit latency = 5
Average flit latency = 10.5954
Maximum flit latency = 20
Slowest flit = 11220
Minimum fragmentation = 0
Average fragmentation = 0
Maximum fragmentation = 0
Minimum injected packet rate = 0.238 (at node 172)
Average injected packet rate = 0.299031
Maximum injected packet rate = 0.348 (at node 22)
Minimum accepted packet rate = 0.22 (at node 110)
Average accepted packet rate = 0.293086
Maximum accepted packet rate = 0.362 (at node 183)
Minimum injected flit rate = 0.238 (at node 172)
Average injected flit rate = 0.299031
Maximum injected flit rate = 0.348 (at node 22)
Minimum accepted flit rate = 0.22 (at node 110)
Average accepted flit rate = 0.293086
Maximum accepted flit rate = 0.362 (at node 183)
Average injected packet length = 1
Average accepted packet length = 1
Total in-flight flits = 761 (0 measured)
latency change    = 1
throughput change = 1
0
Class 0:
Minimum packet latency = 5
Average packet latency = 10.5885
Maximum packet latency = 20
Minimum network latency = 5
Average network latency = 10.5885
Maximum network latency = 20
Slowest packet = 11220
Minimum flit latency = 5
Average flit latency = 10.5885
Maximum flit latency = 20
Slowest flit = 11220
Minimum fragmentation = 0
Average fragmentation = 0
Maximum fragmentation = 0
Minimum injected packet rate = 0.262 (at node 203)
Average injected packet rate = 0.299043
Maximum injected packet rate = 0.337 (at node 223)
Minimum accepted packet rate = 0.246 (at node 95)
Average accepted packet rate = 0.295676
Maximum accepted packet rate = 0.348 (at node 183)
Minimum injected flit rate = 0.262 (at node 203)
Average injected flit rate = 0.299043
Maximum injected flit rate = 0.337 (at node 223)
Minimum accepted flit rate = 0.246 (at node 95)
Average accepted flit rate = 0.295676
Maximum accepted flit rate = 0.348 (at node 183)
Average injected packet length = 1
Average accepted packet length = 1
Total in-flight flits = 862 (0 measured)
latency change    = 0.000652267
throughput change = 0.00875907
0
Class 0:
Minimum packet latency = 5
Average packet latency = 10.6006
Maximum packet latency = 18
Minimum network latency = 5
Average network latency = 10.6006
Maximum network latency = 18
Slowest packet = 104365
Minimum flit latency = 5
Average flit latency = 10.6006
Maximum flit latency = 18
Slowest flit = 104365
Minimum fragmentation = 0
Average fragmentation = 0
Maximum fragmentation = 0
Minimum injected packet rate = 0.238 (at node 29)
Average injected packet rate = 0.298266
Maximum injected packet rate = 0.358 (at node 23)
Minimum accepted packet rate = 0.22 (at node 149)
Average accepted packet rate = 0.298828
Maximum accepted packet rate = 0.362 (at node 123)
Minimum injected flit rate = 0.238 (at node 29)
Average injected flit rate = 0.298266
Maximum injected flit rate = 0.358 (at node 23)
Minimum accepted flit rate = 0.22 (at node 149)
Average accepted flit rate = 0.298828
Maximum accepted flit rate = 0.362 (at node 123)
Average injected packet length = 1
Average accepted packet length = 1
Total in-flight flits = 790 (0 measured)
latency change    = 0.00113578
throughput change = 0.010549
Warmed up ...Time used is 1500 cycles
1
Class 0:
Minimum packet latency = 5
Average packet latency = 10.5954
Maximum packet latency = 17
Minimum network latency = 5
Average network latency = 10.5954
Maximum network latency = 17
Slowest packet = 140307
Minimum flit latency = 5
Average flit latency = 10.6007
Maximum flit latency = 17
Slowest flit = 140307
Minimum fragmentation = 0
Average fragmentation = 0
Maximum fragmentation = 0
Minimum injected packet rate = 0.246 (at node 138)
Average injected packet rate = 0.300984
Maximum injected packet rate = 0.358 (at node 142)
Minimum accepted packet rate = 0.232 (at node 159)
Average accepted packet rate = 0.300711
Maximum accepted packet rate = 0.368 (at node 0)
Minimum injected flit rate = 0.246 (at node 138)
Average injected flit rate = 0.300984
Maximum injected flit rate = 0.358 (at node 142)
Minimum accepted flit rate = 0.232 (at node 159)
Average accepted flit rate = 0.300711
Maximum accepted flit rate = 0.368 (at node 0)
Average injected packet length = 1
Average accepted packet length = 1
Total in-flight flits = 825 (825 measured)
latency change    = 0.000491379
throughput change = 0.0062612
1
Class 0:
Minimum packet latency = 5
Average packet latency = 10.5972
Maximum packet latency = 17
Minimum network latency = 5
Average network latency = 10.5972
Maximum network latency = 17
Slowest packet = 140307
Minimum flit latency = 5
Average flit latency = 10.5999
Maximum flit latency = 17
Slowest flit = 140307
Minimum fragmentation = 0
Average fragmentation = 0
Maximum fragmentation = 0
Minimum injected packet rate = 0.266 (at node 138)
Average injected packet rate = 0.300621
Maximum injected packet rate = 0.334 (at node 30)
Minimum accepted packet rate = 0.255 (at node 228)
Average accepted packet rate = 0.300523
Maximum accepted packet rate = 0.352 (at node 148)
Minimum injected flit rate = 0.266 (at node 138)
Average injected flit rate = 0.300621
Maximum injected flit rate = 0.334 (at node 30)
Minimum accepted flit rate = 0.255 (at node 228)
Average accepted flit rate = 0.300523
Maximum accepted flit rate = 0.352 (at node 148)
Average injected packet length = 1
Average accepted packet length = 1
Total in-flight flits = 815 (815 measured)
latency change    = 0.000172554
throughput change = 0.000623911
1
Class 0:
Minimum packet latency = 5
Average packet latency = 10.5954
Maximum packet latency = 17
Minimum network latency = 5
Average network latency = 10.5954
Maximum network latency = 17
Slowest packet = 140307
Minimum flit latency = 5
Average flit latency = 10.5972
Maximum flit latency = 17
Slowest flit = 140307
Minimum fragmentation = 0
Average fragmentation = 0
Maximum fragmentation = 0
Minimum injected packet rate = 0.268 (at node 39)
Average injected packet rate = 0.300388
Maximum injected packet rate = 0.336 (at node 142)
Minimum accepted packet rate = 0.265333 (at node 4)
Average accepted packet rate = 0.300203
Maximum accepted packet rate = 0.335333 (at node 253)
Minimum injected flit rate = 0.268 (at node 39)
Average injected flit rate = 0.300388
Maximum injected flit rate = 0.336 (at node 142)
Minimum accepted flit rate = 0.265333 (at node 4)
Average accepted flit rate = 0.300203
Maximum accepted flit rate = 0.335333 (at node 253)
Average injected packet length = 1
Average accepted packet length = 1
Total in-flight flits = 861 (861 measured)
latency change    = 0.000170594
throughput change = 0.00106699
Draining all recorded packets ...
Draining remaining packets ...
Time taken is 3032 cycles
====== Traffic class 0 ======
Overall minimum packet latency = 5 (1 samples)
Overall average packet latency = 10.5975 (1 samples)
Overall maximum packet latency = 17 (1 samples)
Overall minimum network latency = 5 (1 samples)
Overall average network latency = 10.5975 (1 samples)
Overall maximum network latency = 17 (1 samples)
Overall minimum flit latency = 5 (1 samples)
Overall average flit latency = 10.5991 (1 samples)
Overall maximum flit latency = 17 (1 samples)
Overall minimum fragmentation = 0 (1 samples)
Overall average fragmentation = 0 (1 samples)
Overall maximum fragmentation = 0 (1 samples)
Overall minimum injected packet rate = 0.268 (1 samples)
Overall average injected packet rate = 0.300388 (1 samples)
Overall maximum injected packet rate = 0.336 (1 samples)
Overall minimum accepted packet rate = 0.265333 (1 samples)
Overall average accepted packet rate = 0.300203 (1 samples)
Overall maximum accepted packet rate = 0.335333 (1 samples)
Overall minimum injected flit rate = 0.268 (1 samples)
Overall average injected flit rate = 0.300388 (1 samples)
Overall maximum injected flit rate = 0.336 (1 samples)
Overall minimum accepted flit rate = 0.265333 (1 samples)
Overall average accepted flit rate = 0.300203 (1 samples)
Overall maximum accepted flit rate = 0.335333 (1 samples)
Overall average injected packet size = 1 (1 samples)
Overall average accepted packet size = 1 (1 samples)
Overall average hops = 2.74967 (1 samples)
Total run time 7.80838
