BEGIN Configuration File: ./FBF-3.conf
injection_rate = 0.8;
traffic = uniform;
routing_function = valiant;
vc_buf_size = 16;
topology = flatfly;
use_noc_latency = 0;
hold_switch_for_packet=0;

c = 4;
k = 8;
n = 2;

x  = 8;
y  = 8;
xr = 2;
yr = 2;

packet_size  = 1;
num_vcs      = 2;
vc_allocator = separable_input_first; 
sw_allocator = separable_input_first;

alloc_iters   = 1;
sample_period = 500;

wait_for_tail_credit = 0;
use_read_write       = 0;

credit_delay   = 2;
routing_delay  = 0;
vc_alloc_delay = 1;
sw_alloc_delay = 1;
st_final_delay = 1;

input_speedup     = 1;
output_speedup    = 1;
internal_speedup  = 2.0;

warmup_periods = 3;
sim_count      = 1;

priority = none;
injection_rate_uses_flits=1;

END Configuration File: ./FBF-3.conf
Number of nodes: 256
Number of routers: 64
 Flat Bufferfly 
 k = 8 n = 2 c = 4
 each switch - total radix =  18
 # of switches = 64
 # of channels = 896
 # of nodes ( size of network ) = 256
0
Class 0:
Minimum packet latency = 5
Average packet latency = 23.6136
Maximum packet latency = 59
Minimum network latency = 5
Average network latency = 23.6136
Maximum network latency = 59
Slowest packet = 61665
Minimum flit latency = 5
Average flit latency = 23.6136
Maximum flit latency = 59
Slowest flit = 61665
Minimum fragmentation = 0
Average fragmentation = 0
Maximum fragmentation = 0
Minimum injected packet rate = 0.738 (at node 2)
Average injected packet rate = 0.799844
Maximum injected packet rate = 0.848 (at node 45)
Minimum accepted packet rate = 0.638 (at node 100)
Average accepted packet rate = 0.761477
Maximum accepted packet rate = 0.866 (at node 206)
Minimum injected flit rate = 0.738 (at node 2)
Average injected flit rate = 0.799844
Maximum injected flit rate = 0.848 (at node 45)
Minimum accepted flit rate = 0.638 (at node 100)
Average accepted flit rate = 0.761477
Maximum accepted flit rate = 0.866 (at node 206)
Average injected packet length = 1
Average accepted packet length = 1
Total in-flight flits = 4911 (0 measured)
latency change    = 1
throughput change = 1
0
Class 0:
Minimum packet latency = 5
Average packet latency = 23.7315
Maximum packet latency = 59
Minimum network latency = 5
Average network latency = 23.7315
Maximum network latency = 59
Slowest packet = 61665
Minimum flit latency = 5
Average flit latency = 23.7315
Maximum flit latency = 59
Slowest flit = 61665
Minimum fragmentation = 0
Average fragmentation = 0
Maximum fragmentation = 0
Minimum injected packet rate = 0.761 (at node 2)
Average injected packet rate = 0.79868
Maximum injected packet rate = 0.832 (at node 10)
Minimum accepted packet rate = 0.712 (at node 74)
Average accepted packet rate = 0.779687
Maximum accepted packet rate = 0.856 (at node 206)
Minimum injected flit rate = 0.761 (at node 2)
Average injected flit rate = 0.79868
Maximum injected flit rate = 0.832 (at node 10)
Minimum accepted flit rate = 0.712 (at node 74)
Average accepted flit rate = 0.779687
Maximum accepted flit rate = 0.856 (at node 206)
Average injected packet length = 1
Average accepted packet length = 1
Total in-flight flits = 4862 (0 measured)
latency change    = 0.00496837
throughput change = 0.0233567
0
Class 0:
Minimum packet latency = 5
Average packet latency = 24.0749
Maximum packet latency = 70
Minimum network latency = 5
Average network latency = 24.0749
Maximum network latency = 70
Slowest packet = 216333
Minimum flit latency = 5
Average flit latency = 24.0749
Maximum flit latency = 70
Slowest flit = 216333
Minimum fragmentation = 0
Average fragmentation = 0
Maximum fragmentation = 0
Minimum injected packet rate = 0.74 (at node 171)
Average injected packet rate = 0.799492
Maximum injected packet rate = 0.842 (at node 31)
Minimum accepted packet rate = 0.692 (at node 168)
Average accepted packet rate = 0.800172
Maximum accepted packet rate = 0.916 (at node 24)
Minimum injected flit rate = 0.74 (at node 171)
Average injected flit rate = 0.799492
Maximum injected flit rate = 0.842 (at node 31)
Minimum accepted flit rate = 0.692 (at node 168)
Average accepted flit rate = 0.800172
Maximum accepted flit rate = 0.916 (at node 24)
Average injected packet length = 1
Average accepted packet length = 1
Total in-flight flits = 4775 (0 measured)
latency change    = 0.0142605
throughput change = 0.0256
Warmed up ...Time used is 1500 cycles
1
Class 0:
Minimum packet latency = 5
Average packet latency = 23.8847
Maximum packet latency = 62
Minimum network latency = 5
Average network latency = 23.8847
Maximum network latency = 62
Slowest packet = 350566
Minimum flit latency = 5
Average flit latency = 23.9502
Maximum flit latency = 62
Slowest flit = 350566
Minimum fragmentation = 0
Average fragmentation = 0
Maximum fragmentation = 0
Minimum injected packet rate = 0.754 (at node 175)
Average injected packet rate = 0.799555
Maximum injected packet rate = 0.838 (at node 52)
Minimum accepted packet rate = 0.676 (at node 35)
Average accepted packet rate = 0.797734
Maximum accepted packet rate = 0.882 (at node 13)
Minimum injected flit rate = 0.754 (at node 175)
Average injected flit rate = 0.799555
Maximum injected flit rate = 0.838 (at node 52)
Minimum accepted flit rate = 0.676 (at node 35)
Average accepted flit rate = 0.797734
Maximum accepted flit rate = 0.882 (at node 13)
Average injected packet length = 1
Average accepted packet length = 1
Total in-flight flits = 5008 (5008 measured)
latency change    = 0.00796157
throughput change = 0.00305553
1
Class 0:
Minimum packet latency = 5
Average packet latency = 23.9639
Maximum packet latency = 62
Minimum network latency = 5
Average network latency = 23.9639
Maximum network latency = 62
Slowest packet = 350566
Minimum flit latency = 5
Average flit latency = 23.9947
Maximum flit latency = 62
Slowest flit = 350566
Minimum fragmentation = 0
Average fragmentation = 0
Maximum fragmentation = 0
Minimum injected packet rate = 0.767 (at node 181)
Average injected packet rate = 0.799309
Maximum injected packet rate = 0.831 (at node 52)
Minimum accepted packet rate = 0.698 (at node 35)
Average accepted packet rate = 0.799098
Maximum accepted packet rate = 0.865 (at node 255)
Minimum injected flit rate = 0.767 (at node 181)
Average injected flit rate = 0.799309
Maximum injected flit rate = 0.831 (at node 52)
Minimum accepted flit rate = 0.698 (at node 35)
Average accepted flit rate = 0.799098
Maximum accepted flit rate = 0.865 (at node 255)
Average injected packet length = 1
Average accepted packet length = 1
Total in-flight flits = 4829 (4829 measured)
latency change    = 0.00330354
throughput change = 0.00170603
1
Class 0:
Minimum packet latency = 5
Average packet latency = 23.971
Maximum packet latency = 62
Minimum network latency = 5
Average network latency = 23.971
Maximum network latency = 62
Slowest packet = 350566
Minimum flit latency = 5
Average flit latency = 23.9915
Maximum flit latency = 62
Slowest flit = 350566
Minimum fragmentation = 0
Average fragmentation = 0
Maximum fragmentation = 0
Minimum injected packet rate = 0.774667 (at node 1)
Average injected packet rate = 0.79912
Maximum injected packet rate = 0.826 (at node 60)
Minimum accepted packet rate = 0.724 (at node 34)
Average accepted packet rate = 0.79849
Maximum accepted packet rate = 0.858 (at node 79)
Minimum injected flit rate = 0.774667 (at node 1)
Average injected flit rate = 0.79912
Maximum injected flit rate = 0.826 (at node 60)
Minimum accepted flit rate = 0.724 (at node 34)
Average accepted flit rate = 0.79849
Maximum accepted flit rate = 0.858 (at node 79)
Average injected packet length = 1
Average accepted packet length = 1
Total in-flight flits = 5017 (5017 measured)
latency change    = 0.000298366
throughput change = 0.000761529
Draining all recorded packets ...
Draining remaining packets ...
Time taken is 3086 cycles
====== Traffic class 0 ======
Overall minimum packet latency = 5 (1 samples)
Overall average packet latency = 24.0059 (1 samples)
Overall maximum packet latency = 62 (1 samples)
Overall minimum network latency = 5 (1 samples)
Overall average network latency = 24.0059 (1 samples)
Overall maximum network latency = 62 (1 samples)
Overall minimum flit latency = 5 (1 samples)
Overall average flit latency = 24.0078 (1 samples)
Overall maximum flit latency = 62 (1 samples)
Overall minimum fragmentation = 0 (1 samples)
Overall average fragmentation = 0 (1 samples)
Overall maximum fragmentation = 0 (1 samples)
Overall minimum injected packet rate = 0.774667 (1 samples)
Overall average injected packet rate = 0.79912 (1 samples)
Overall maximum injected packet rate = 0.826 (1 samples)
Overall minimum accepted packet rate = 0.724 (1 samples)
Overall average accepted packet rate = 0.79849 (1 samples)
Overall maximum accepted packet rate = 0.858 (1 samples)
Overall minimum injected flit rate = 0.774667 (1 samples)
Overall average injected flit rate = 0.79912 (1 samples)
Overall maximum injected flit rate = 0.826 (1 samples)
Overall minimum accepted flit rate = 0.724 (1 samples)
Overall average accepted flit rate = 0.79849 (1 samples)
Overall maximum accepted flit rate = 0.858 (1 samples)
Overall average injected packet size = 1 (1 samples)
Overall average accepted packet size = 1 (1 samples)
Overall average hops = 4.42439 (1 samples)
Total run time 30.9083
