BEGIN Configuration File: ./FBF-3.conf
injection_rate = 0.7;
traffic = bitrev;
routing_function = adaptive_xyyx;
vc_buf_size = 16;
topology = flatfly;
use_noc_latency = 0;
hold_switch_for_packet=0;

c = 4;
k = 8;
n = 2;

x  = 8;
y  = 8;
xr = 2;
yr = 2;

packet_size  = 1;
num_vcs      = 2;
vc_allocator = separable_input_first; 
sw_allocator = separable_input_first;

alloc_iters   = 1;
sample_period = 500;

wait_for_tail_credit = 0;
use_read_write       = 0;

credit_delay   = 2;
routing_delay  = 0;
vc_alloc_delay = 1;
sw_alloc_delay = 1;
st_final_delay = 1;

input_speedup     = 1;
output_speedup    = 1;
internal_speedup  = 2.0;

warmup_periods = 3;
sim_count      = 1;

priority = none;
injection_rate_uses_flits=1;

END Configuration File: ./FBF-3.conf
Number of nodes: 256
Number of routers: 64
 Flat Bufferfly 
 k = 8 n = 2 c = 4
 each switch - total radix =  18
 # of switches = 64
 # of channels = 896
 # of nodes ( size of network ) = 256
0
Class 0:
Minimum packet latency = 5
Average packet latency = 26.7092
Maximum packet latency = 268
Minimum network latency = 5
Average network latency = 25.6949
Maximum network latency = 197
Slowest packet = 29444
Minimum flit latency = 5
Average flit latency = 25.6949
Maximum flit latency = 197
Slowest flit = 32765
Minimum fragmentation = 0
Average fragmentation = 0
Maximum fragmentation = 0
Minimum injected packet rate = 0.41 (at node 83)
Average injected packet rate = 0.679234
Maximum injected packet rate = 0.774 (at node 160)
Minimum accepted packet rate = 0.326 (at node 202)
Average accepted packet rate = 0.637672
Maximum accepted packet rate = 0.732 (at node 5)
Minimum injected flit rate = 0.41 (at node 83)
Average injected flit rate = 0.679234
Maximum injected flit rate = 0.774 (at node 160)
Minimum accepted flit rate = 0.326 (at node 202)
Average accepted flit rate = 0.637672
Maximum accepted flit rate = 0.732 (at node 5)
Average injected packet length = 1
Average accepted packet length = 1
Total in-flight flits = 5341 (0 measured)
latency change    = 1
throughput change = 1
0
Class 0:
Minimum packet latency = 5
Average packet latency = 35.8696
Maximum packet latency = 591
Minimum network latency = 5
Average network latency = 29.1108
Maximum network latency = 203
Slowest packet = 29444
Minimum flit latency = 5
Average flit latency = 29.1108
Maximum flit latency = 203
Slowest flit = 84368
Minimum fragmentation = 0
Average fragmentation = 0
Maximum fragmentation = 0
Minimum injected packet rate = 0.336 (at node 202)
Average injected packet rate = 0.669691
Maximum injected packet rate = 0.742 (at node 26)
Minimum accepted packet rate = 0.292 (at node 83)
Average accepted packet rate = 0.647848
Maximum accepted packet rate = 0.73 (at node 88)
Minimum injected flit rate = 0.336 (at node 202)
Average injected flit rate = 0.669691
Maximum injected flit rate = 0.742 (at node 26)
Minimum accepted flit rate = 0.292 (at node 83)
Average accepted flit rate = 0.647848
Maximum accepted flit rate = 0.73 (at node 88)
Average injected packet length = 1
Average accepted packet length = 1
Total in-flight flits = 5622 (0 measured)
latency change    = 0.255382
throughput change = 0.0157071
0
Class 0:
Minimum packet latency = 5
Average packet latency = 63.3196
Maximum packet latency = 899
Minimum network latency = 5
Average network latency = 35.0488
Maximum network latency = 196
Slowest packet = 145886
Minimum flit latency = 5
Average flit latency = 35.0488
Maximum flit latency = 196
Slowest flit = 160185
Minimum fragmentation = 0
Average fragmentation = 0
Maximum fragmentation = 0
Minimum injected packet rate = 0.23 (at node 172)
Average injected packet rate = 0.653469
Maximum injected packet rate = 0.754 (at node 52)
Minimum accepted packet rate = 0.232 (at node 53)
Average accepted packet rate = 0.649766
Maximum accepted packet rate = 0.768 (at node 11)
Minimum injected flit rate = 0.23 (at node 172)
Average injected flit rate = 0.653469
Maximum injected flit rate = 0.754 (at node 52)
Minimum accepted flit rate = 0.232 (at node 53)
Average accepted flit rate = 0.649766
Maximum accepted flit rate = 0.768 (at node 11)
Average injected packet length = 1
Average accepted packet length = 1
Total in-flight flits = 6097 (0 measured)
latency change    = 0.433515
throughput change = 0.00295179
Warmed up ...Time used is 1500 cycles
1
Class 0:
Minimum packet latency = 5
Average packet latency = 77.9739
Maximum packet latency = 1196
Minimum network latency = 5
Average network latency = 34.1785
Maximum network latency = 196
Slowest packet = 255118
Minimum flit latency = 5
Average flit latency = 36.2245
Maximum flit latency = 199
Slowest flit = 239056
Minimum fragmentation = 0
Average fragmentation = 0
Maximum fragmentation = 0
Minimum injected packet rate = 0.24 (at node 180)
Average injected packet rate = 0.647516
Maximum injected packet rate = 0.76 (at node 52)
Minimum accepted packet rate = 0.236 (at node 45)
Average accepted packet rate = 0.648
Maximum accepted packet rate = 0.762 (at node 56)
Minimum injected flit rate = 0.24 (at node 180)
Average injected flit rate = 0.647516
Maximum injected flit rate = 0.76 (at node 52)
Minimum accepted flit rate = 0.236 (at node 45)
Average accepted flit rate = 0.648
Maximum accepted flit rate = 0.762 (at node 56)
Average injected packet length = 1
Average accepted packet length = 1
Total in-flight flits = 6033 (6033 measured)
latency change    = 0.187938
throughput change = 0.00272473
1
Class 0:
Minimum packet latency = 5
Average packet latency = 95.1479
Maximum packet latency = 1524
Minimum network latency = 5
Average network latency = 35.4606
Maximum network latency = 205
Slowest packet = 255118
Minimum flit latency = 5
Average flit latency = 36.4392
Maximum flit latency = 205
Slowest flit = 359873
Minimum fragmentation = 0
Average fragmentation = 0
Maximum fragmentation = 0
Minimum injected packet rate = 0.256 (at node 75)
Average injected packet rate = 0.646859
Maximum injected packet rate = 0.744 (at node 139)
Minimum accepted packet rate = 0.255 (at node 17)
Average accepted packet rate = 0.646203
Maximum accepted packet rate = 0.771 (at node 209)
Minimum injected flit rate = 0.256 (at node 75)
Average injected flit rate = 0.646859
Maximum injected flit rate = 0.744 (at node 139)
Minimum accepted flit rate = 0.255 (at node 17)
Average accepted flit rate = 0.646203
Maximum accepted flit rate = 0.771 (at node 209)
Average injected packet length = 1
Average accepted packet length = 1
Total in-flight flits = 6272 (6272 measured)
latency change    = 0.180498
throughput change = 0.00278067
1
Class 0:
Minimum packet latency = 5
Average packet latency = 111.557
Maximum packet latency = 1850
Minimum network latency = 5
Average network latency = 36.3985
Maximum network latency = 205
Slowest packet = 255118
Minimum flit latency = 5
Average flit latency = 37.0282
Maximum flit latency = 205
Slowest flit = 359873
Minimum fragmentation = 0
Average fragmentation = 0
Maximum fragmentation = 0
Minimum injected packet rate = 0.258667 (at node 75)
Average injected packet rate = 0.646964
Maximum injected packet rate = 0.738 (at node 139)
Minimum accepted packet rate = 0.256667 (at node 210)
Average accepted packet rate = 0.645833
Maximum accepted packet rate = 0.748 (at node 209)
Minimum injected flit rate = 0.258667 (at node 75)
Average injected flit rate = 0.646964
Maximum injected flit rate = 0.738 (at node 139)
Minimum accepted flit rate = 0.256667 (at node 210)
Average accepted flit rate = 0.645833
Maximum accepted flit rate = 0.748 (at node 209)
Average injected packet length = 1
Average accepted packet length = 1
Total in-flight flits = 6535 (6535 measured)
latency change    = 0.147091
throughput change = 0.000572581
1
Class 0:
Minimum packet latency = 5
Average packet latency = 125.9
Maximum packet latency = 2132
Minimum network latency = 5
Average network latency = 37.5618
Maximum network latency = 209
Slowest packet = 255118
Minimum flit latency = 5
Average flit latency = 38.0143
Maximum flit latency = 209
Slowest flit = 470722
Minimum fragmentation = 0
Average fragmentation = 0
Maximum fragmentation = 0
Minimum injected packet rate = 0.2595 (at node 180)
Average injected packet rate = 0.644723
Maximum injected packet rate = 0.7275 (at node 232)
Minimum accepted packet rate = 0.2585 (at node 45)
Average accepted packet rate = 0.643375
Maximum accepted packet rate = 0.73 (at node 23)
Minimum injected flit rate = 0.2595 (at node 180)
Average injected flit rate = 0.644723
Maximum injected flit rate = 0.7275 (at node 232)
Minimum accepted flit rate = 0.2585 (at node 45)
Average accepted flit rate = 0.643375
Maximum accepted flit rate = 0.73 (at node 23)
Average injected packet length = 1
Average accepted packet length = 1
Total in-flight flits = 6808 (6808 measured)
latency change    = 0.113926
throughput change = 0.003821
1
Class 0:
Minimum packet latency = 5
Average packet latency = 142.664
Maximum packet latency = 2419
Minimum network latency = 5
Average network latency = 38.4566
Maximum network latency = 209
Slowest packet = 255118
Minimum flit latency = 5
Average flit latency = 38.8064
Maximum flit latency = 209
Slowest flit = 470722
Minimum fragmentation = 0
Average fragmentation = 0
Maximum fragmentation = 0
Minimum injected packet rate = 0.258 (at node 180)
Average injected packet rate = 0.643252
Maximum injected packet rate = 0.7192 (at node 232)
Minimum accepted packet rate = 0.2572 (at node 45)
Average accepted packet rate = 0.641534
Maximum accepted packet rate = 0.7216 (at node 23)
Minimum injected flit rate = 0.258 (at node 180)
Average injected flit rate = 0.643252
Maximum injected flit rate = 0.7192 (at node 232)
Minimum accepted flit rate = 0.2572 (at node 45)
Average accepted flit rate = 0.641534
Maximum accepted flit rate = 0.7216 (at node 23)
Average injected packet length = 1
Average accepted packet length = 1
Total in-flight flits = 7211 (7211 measured)
latency change    = 0.117504
throughput change = 0.0028691
1
Class 0:
Minimum packet latency = 5
Average packet latency = 159.455
Maximum packet latency = 2739
Minimum network latency = 5
Average network latency = 39.396
Maximum network latency = 209
Slowest packet = 255118
Minimum flit latency = 5
Average flit latency = 39.6768
Maximum flit latency = 209
Slowest flit = 470722
Minimum fragmentation = 0
Average fragmentation = 0
Maximum fragmentation = 0
Minimum injected packet rate = 0.253333 (at node 180)
Average injected packet rate = 0.64087
Maximum injected packet rate = 0.715333 (at node 227)
Minimum accepted packet rate = 0.253 (at node 45)
Average accepted packet rate = 0.639404
Maximum accepted packet rate = 0.717 (at node 162)
Minimum injected flit rate = 0.253333 (at node 180)
Average injected flit rate = 0.64087
Maximum injected flit rate = 0.715333 (at node 227)
Minimum accepted flit rate = 0.253 (at node 45)
Average accepted flit rate = 0.639404
Maximum accepted flit rate = 0.717 (at node 162)
Average injected packet length = 1
Average accepted packet length = 1
Total in-flight flits = 7257 (7257 measured)
latency change    = 0.105304
throughput change = 0.00333237
1
Class 0:
Minimum packet latency = 5
Average packet latency = 176.161
Maximum packet latency = 3043
Minimum network latency = 5
Average network latency = 40.1748
Maximum network latency = 209
Slowest packet = 255118
Minimum flit latency = 5
Average flit latency = 40.4081
Maximum flit latency = 209
Slowest flit = 470722
Minimum fragmentation = 0
Average fragmentation = 0
Maximum fragmentation = 0
Minimum injected packet rate = 0.252571 (at node 180)
Average injected packet rate = 0.638288
Maximum injected packet rate = 0.720286 (at node 227)
Minimum accepted packet rate = 0.251714 (at node 45)
Average accepted packet rate = 0.637083
Maximum accepted packet rate = 0.720571 (at node 199)
Minimum injected flit rate = 0.252571 (at node 180)
Average injected flit rate = 0.638288
Maximum injected flit rate = 0.720286 (at node 227)
Minimum accepted flit rate = 0.251714 (at node 45)
Average accepted flit rate = 0.637083
Maximum accepted flit rate = 0.720571 (at node 199)
Average injected packet length = 1
Average accepted packet length = 1
Total in-flight flits = 7205 (7205 measured)
latency change    = 0.0948307
throughput change = 0.00364326
Draining all recorded packets ...
Class 0:
Remaining flits: 954279 956495 956515 956747 957157 957402 957525 957541 957569 957571 [...] (7412 flits)
Measured flits: 954279 956495 956515 956747 957157 957402 957525 957541 957569 957571 [...] (1677 flits)
Class 0:
Remaining flits: 1114650 1115510 1115671 1115734 1116060 1116085 1116298 1116315 1116321 1116343 [...] (7448 flits)
Measured flits: 1114650 1115510 1115671 1115734 1116060 1116085 1116298 1116315 1116321 1116343 [...] (741 flits)
Class 0:
Remaining flits: 1270751 1271384 1271627 1271727 1272043 1272184 1272204 1272275 1272678 1272764 [...] (7498 flits)
Measured flits: 1270751 1271384 1271627 1271727 1272043 1272184 1272204 1272275 1272678 1272764 [...] (698 flits)
Class 0:
Remaining flits: 1428371 1428446 1428646 1428976 1429358 1429410 1429438 1429973 1430106 1430343 [...] (7779 flits)
Measured flits: 1428371 1428446 1428646 1428976 1429358 1429410 1429438 1429973 1430106 1430343 [...] (717 flits)
Class 0:
Remaining flits: 1582322 1582658 1582911 1582962 1583030 1583148 1583191 1583244 1583455 1583499 [...] (7651 flits)
Measured flits: 1582322 1582658 1582911 1582962 1583030 1583148 1583191 1583244 1583455 1583499 [...] (701 flits)
Class 0:
Remaining flits: 1735607 1735761 1736077 1736364 1736515 1736674 1737751 1737902 1737964 1738115 [...] (7921 flits)
Measured flits: 1735607 1735761 1736077 1736364 1736515 1736674 1737751 1737902 1737964 1738115 [...] (701 flits)
Class 0:
Remaining flits: 1888631 1888786 1889575 1889985 1890288 1890641 1890714 1890830 1890985 1891105 [...] (7911 flits)
Measured flits: 1889575 1890641 1890714 1891105 1891250 1891486 1891565 1891859 1892012 1892237 [...] (346 flits)
Class 0:
Remaining flits: 2042355 2042672 2042771 2042971 2043270 2043607 2043881 2044007 2044066 2044152 [...] (7906 flits)
Measured flits: 2042355 2042672 2042771 2042971 2043607 2044007 2044066 2044152 2044803 2045268 [...] (261 flits)
Draining remaining packets ...
Time taken is 13899 cycles
====== Traffic class 0 ======
Overall minimum packet latency = 5 (1 samples)
Overall average packet latency = 478.231 (1 samples)
Overall maximum packet latency = 8789 (1 samples)
Overall minimum network latency = 5 (1 samples)
Overall average network latency = 48.4665 (1 samples)
Overall maximum network latency = 213 (1 samples)
Overall minimum flit latency = 5 (1 samples)
Overall average flit latency = 46.6694 (1 samples)
Overall maximum flit latency = 216 (1 samples)
Overall minimum fragmentation = 0 (1 samples)
Overall average fragmentation = 0 (1 samples)
Overall maximum fragmentation = 0 (1 samples)
Overall minimum injected packet rate = 0.252571 (1 samples)
Overall average injected packet rate = 0.638288 (1 samples)
Overall maximum injected packet rate = 0.720286 (1 samples)
Overall minimum accepted packet rate = 0.251714 (1 samples)
Overall average accepted packet rate = 0.637083 (1 samples)
Overall maximum accepted packet rate = 0.720571 (1 samples)
Overall minimum injected flit rate = 0.252571 (1 samples)
Overall average injected flit rate = 0.638288 (1 samples)
Overall maximum injected flit rate = 0.720286 (1 samples)
Overall minimum accepted flit rate = 0.251714 (1 samples)
Overall average accepted flit rate = 0.637083 (1 samples)
Overall maximum accepted flit rate = 0.720571 (1 samples)
Overall average injected packet size = 1 (1 samples)
Overall average accepted packet size = 1 (1 samples)
Overall average hops = 2.74933 (1 samples)
Total run time 77.2957
