BEGIN Configuration File: ./FBF-3.conf
injection_rate = 0.01;
traffic = asymmetric;
routing_function = valiant;
vc_buf_size = 16;
topology = flatfly;
use_noc_latency = 0;
hold_switch_for_packet=0;

c = 4;
k = 8;
n = 2;

x  = 8;
y  = 8;
xr = 2;
yr = 2;

packet_size  = 1;
num_vcs      = 2;
vc_allocator = separable_input_first; 
sw_allocator = separable_input_first;

alloc_iters   = 1;
sample_period = 500;

wait_for_tail_credit = 0;
use_read_write       = 0;

credit_delay   = 2;
routing_delay  = 0;
vc_alloc_delay = 1;
sw_alloc_delay = 1;
st_final_delay = 1;

input_speedup     = 1;
output_speedup    = 1;
internal_speedup  = 2.0;

warmup_periods = 3;
sim_count      = 1;

priority = none;
injection_rate_uses_flits=1;

END Configuration File: ./FBF-3.conf
Number of nodes: 256
Number of routers: 64
 Flat Bufferfly 
 k = 8 n = 2 c = 4
 each switch - total radix =  18
 # of switches = 64
 # of channels = 896
 # of nodes ( size of network ) = 256
0
Class 0:
Minimum packet latency = 5
Average packet latency = 10.0204
Maximum packet latency = 18
Minimum network latency = 5
Average network latency = 10.0204
Maximum network latency = 18
Slowest packet = 198
Minimum flit latency = 5
Average flit latency = 10.0204
Maximum flit latency = 18
Slowest flit = 198
Minimum fragmentation = 0
Average fragmentation = 0
Maximum fragmentation = 0
Minimum injected packet rate = 0 (at node 166)
Average injected packet rate = 0.00977344
Maximum injected packet rate = 0.024 (at node 35)
Minimum accepted packet rate = 0 (at node 74)
Average accepted packet rate = 0.00957812
Maximum accepted packet rate = 0.026 (at node 170)
Minimum injected flit rate = 0 (at node 166)
Average injected flit rate = 0.00977344
Maximum injected flit rate = 0.024 (at node 35)
Minimum accepted flit rate = 0 (at node 74)
Average accepted flit rate = 0.00957812
Maximum accepted flit rate = 0.026 (at node 170)
Average injected packet length = 1
Average accepted packet length = 1
Total in-flight flits = 25 (0 measured)
latency change    = 1
throughput change = 1
0
Class 0:
Minimum packet latency = 5
Average packet latency = 10.1065
Maximum packet latency = 18
Minimum network latency = 5
Average network latency = 10.1065
Maximum network latency = 18
Slowest packet = 198
Minimum flit latency = 5
Average flit latency = 10.1065
Maximum flit latency = 18
Slowest flit = 198
Minimum fragmentation = 0
Average fragmentation = 0
Maximum fragmentation = 0
Minimum injected packet rate = 0.003 (at node 30)
Average injected packet rate = 0.00998047
Maximum injected packet rate = 0.022 (at node 170)
Minimum accepted packet rate = 0.003 (at node 154)
Average accepted packet rate = 0.00986328
Maximum accepted packet rate = 0.021 (at node 170)
Minimum injected flit rate = 0.003 (at node 30)
Average injected flit rate = 0.00998047
Maximum injected flit rate = 0.022 (at node 170)
Minimum accepted flit rate = 0.003 (at node 154)
Average accepted flit rate = 0.00986328
Maximum accepted flit rate = 0.021 (at node 170)
Average injected packet length = 1
Average accepted packet length = 1
Total in-flight flits = 30 (0 measured)
latency change    = 0.00852351
throughput change = 0.0289109
0
Class 0:
Minimum packet latency = 5
Average packet latency = 10.6394
Maximum packet latency = 18
Minimum network latency = 5
Average network latency = 10.6394
Maximum network latency = 18
Slowest packet = 3015
Minimum flit latency = 5
Average flit latency = 10.6394
Maximum flit latency = 18
Slowest flit = 3015
Minimum fragmentation = 0
Average fragmentation = 0
Maximum fragmentation = 0
Minimum injected packet rate = 0 (at node 94)
Average injected packet rate = 0.00953906
Maximum injected packet rate = 0.02 (at node 10)
Minimum accepted packet rate = 0 (at node 2)
Average accepted packet rate = 0.00955469
Maximum accepted packet rate = 0.022 (at node 164)
Minimum injected flit rate = 0 (at node 94)
Average injected flit rate = 0.00953906
Maximum injected flit rate = 0.02 (at node 10)
Minimum accepted flit rate = 0 (at node 2)
Average accepted flit rate = 0.00955469
Maximum accepted flit rate = 0.022 (at node 164)
Average injected packet length = 1
Average accepted packet length = 1
Total in-flight flits = 28 (0 measured)
latency change    = 0.0500852
throughput change = 0.0322976
Warmed up ...Time used is 1500 cycles
1
Class 0:
Minimum packet latency = 5
Average packet latency = 10.0667
Maximum packet latency = 18
Minimum network latency = 5
Average network latency = 10.0667
Maximum network latency = 18
Slowest packet = 3902
Minimum flit latency = 5
Average flit latency = 10.1443
Maximum flit latency = 18
Slowest flit = 3902
Minimum fragmentation = 0
Average fragmentation = 0
Maximum fragmentation = 0
Minimum injected packet rate = 0 (at node 12)
Average injected packet rate = 0.0101563
Maximum injected packet rate = 0.024 (at node 9)
Minimum accepted packet rate = 0 (at node 23)
Average accepted packet rate = 0.0101797
Maximum accepted packet rate = 0.022 (at node 58)
Minimum injected flit rate = 0 (at node 12)
Average injected flit rate = 0.0101563
Maximum injected flit rate = 0.024 (at node 9)
Minimum accepted flit rate = 0 (at node 23)
Average accepted flit rate = 0.0101797
Maximum accepted flit rate = 0.022 (at node 58)
Average injected packet length = 1
Average accepted packet length = 1
Total in-flight flits = 25 (25 measured)
latency change    = 0.0568952
throughput change = 0.0613968
1
Class 0:
Minimum packet latency = 5
Average packet latency = 10.1674
Maximum packet latency = 18
Minimum network latency = 5
Average network latency = 10.1674
Maximum network latency = 18
Slowest packet = 3902
Minimum flit latency = 5
Average flit latency = 10.2061
Maximum flit latency = 18
Slowest flit = 3902
Minimum fragmentation = 0
Average fragmentation = 0
Maximum fragmentation = 0
Minimum injected packet rate = 0.003 (at node 6)
Average injected packet rate = 0.00992578
Maximum injected packet rate = 0.02 (at node 136)
Minimum accepted packet rate = 0.004 (at node 39)
Average accepted packet rate = 0.00991016
Maximum accepted packet rate = 0.021 (at node 95)
Minimum injected flit rate = 0.003 (at node 6)
Average injected flit rate = 0.00992578
Maximum injected flit rate = 0.02 (at node 136)
Minimum accepted flit rate = 0.004 (at node 39)
Average accepted flit rate = 0.00991016
Maximum accepted flit rate = 0.021 (at node 95)
Average injected packet length = 1
Average accepted packet length = 1
Total in-flight flits = 32 (32 measured)
latency change    = 0.00990723
throughput change = 0.0271975
1
Class 0:
Minimum packet latency = 5
Average packet latency = 10.1738
Maximum packet latency = 18
Minimum network latency = 5
Average network latency = 10.1738
Maximum network latency = 18
Slowest packet = 3902
Minimum flit latency = 5
Average flit latency = 10.1991
Maximum flit latency = 18
Slowest flit = 3902
Minimum fragmentation = 0
Average fragmentation = 0
Maximum fragmentation = 0
Minimum injected packet rate = 0.004 (at node 27)
Average injected packet rate = 0.0100938
Maximum injected packet rate = 0.018 (at node 136)
Minimum accepted packet rate = 0.00466667 (at node 61)
Average accepted packet rate = 0.010099
Maximum accepted packet rate = 0.0173333 (at node 58)
Minimum injected flit rate = 0.004 (at node 27)
Average injected flit rate = 0.0100938
Maximum injected flit rate = 0.018 (at node 136)
Minimum accepted flit rate = 0.00466667 (at node 61)
Average accepted flit rate = 0.010099
Maximum accepted flit rate = 0.0173333 (at node 58)
Average injected packet length = 1
Average accepted packet length = 1
Total in-flight flits = 26 (26 measured)
latency change    = 0.000626009
throughput change = 0.0186952
1
Class 0:
Minimum packet latency = 5
Average packet latency = 10.2338
Maximum packet latency = 18
Minimum network latency = 5
Average network latency = 10.2338
Maximum network latency = 18
Slowest packet = 3902
Minimum flit latency = 5
Average flit latency = 10.2525
Maximum flit latency = 18
Slowest flit = 3902
Minimum fragmentation = 0
Average fragmentation = 0
Maximum fragmentation = 0
Minimum injected packet rate = 0.0045 (at node 144)
Average injected packet rate = 0.0100254
Maximum injected packet rate = 0.016 (at node 136)
Minimum accepted packet rate = 0.0045 (at node 116)
Average accepted packet rate = 0.0100313
Maximum accepted packet rate = 0.016 (at node 207)
Minimum injected flit rate = 0.0045 (at node 144)
Average injected flit rate = 0.0100254
Maximum injected flit rate = 0.016 (at node 136)
Minimum accepted flit rate = 0.0045 (at node 116)
Average accepted flit rate = 0.0100313
Maximum accepted flit rate = 0.016 (at node 207)
Average injected packet length = 1
Average accepted packet length = 1
Total in-flight flits = 25 (25 measured)
latency change    = 0.00586146
throughput change = 0.00674974
Draining all recorded packets ...
Draining remaining packets ...
Time taken is 3537 cycles
====== Traffic class 0 ======
Overall minimum packet latency = 5 (1 samples)
Overall average packet latency = 10.2392 (1 samples)
Overall maximum packet latency = 18 (1 samples)
Overall minimum network latency = 5 (1 samples)
Overall average network latency = 10.2392 (1 samples)
Overall maximum network latency = 18 (1 samples)
Overall minimum flit latency = 5 (1 samples)
Overall average flit latency = 10.2606 (1 samples)
Overall maximum flit latency = 18 (1 samples)
Overall minimum fragmentation = 0 (1 samples)
Overall average fragmentation = 0 (1 samples)
Overall maximum fragmentation = 0 (1 samples)
Overall minimum injected packet rate = 0.0045 (1 samples)
Overall average injected packet rate = 0.0100254 (1 samples)
Overall maximum injected packet rate = 0.016 (1 samples)
Overall minimum accepted packet rate = 0.0045 (1 samples)
Overall average accepted packet rate = 0.0100313 (1 samples)
Overall maximum accepted packet rate = 0.016 (1 samples)
Overall minimum injected flit rate = 0.0045 (1 samples)
Overall average injected flit rate = 0.0100254 (1 samples)
Overall maximum injected flit rate = 0.016 (1 samples)
Overall minimum accepted flit rate = 0.0045 (1 samples)
Overall average accepted flit rate = 0.0100313 (1 samples)
Overall maximum accepted flit rate = 0.016 (1 samples)
Overall average injected packet size = 1 (1 samples)
Overall average accepted packet size = 1 (1 samples)
Overall average hops = 2.7442 (1 samples)
Total run time 1.65304
