BEGIN Configuration File: ./FBF-3.conf
injection_rate = 0.4;
traffic = uniform;
routing_function = ran_min;
vc_buf_size = 16;
topology = flatfly;
use_noc_latency = 0;
hold_switch_for_packet=0;

c = 4;
k = 8;
n = 2;

x  = 8;
y  = 8;
xr = 2;
yr = 2;

packet_size  = 1;
num_vcs      = 2;
vc_allocator = separable_input_first; 
sw_allocator = separable_input_first;

alloc_iters   = 1;
sample_period = 500;

wait_for_tail_credit = 0;
use_read_write       = 0;

credit_delay   = 2;
routing_delay  = 0;
vc_alloc_delay = 1;
sw_alloc_delay = 1;
st_final_delay = 1;

input_speedup     = 1;
output_speedup    = 1;
internal_speedup  = 2.0;

warmup_periods = 3;
sim_count      = 1;

priority = none;
injection_rate_uses_flits=1;

END Configuration File: ./FBF-3.conf
Number of nodes: 256
Number of routers: 64
 Flat Bufferfly 
 k = 8 n = 2 c = 4
 each switch - total radix =  18
 # of switches = 64
 # of channels = 896
 # of nodes ( size of network ) = 256
0
Class 0:
Minimum packet latency = 5
Average packet latency = 10.7342
Maximum packet latency = 18
Minimum network latency = 5
Average network latency = 10.7342
Maximum network latency = 18
Slowest packet = 12649
Minimum flit latency = 5
Average flit latency = 10.7342
Maximum flit latency = 18
Slowest flit = 12649
Minimum fragmentation = 0
Average fragmentation = 0
Maximum fragmentation = 0
Minimum injected packet rate = 0.334 (at node 172)
Average injected packet rate = 0.398383
Maximum injected packet rate = 0.452 (at node 149)
Minimum accepted packet rate = 0.322 (at node 15)
Average accepted packet rate = 0.390016
Maximum accepted packet rate = 0.482 (at node 147)
Minimum injected flit rate = 0.334 (at node 172)
Average injected flit rate = 0.398383
Maximum injected flit rate = 0.452 (at node 149)
Minimum accepted flit rate = 0.322 (at node 15)
Average accepted flit rate = 0.390016
Maximum accepted flit rate = 0.482 (at node 147)
Average injected packet length = 1
Average accepted packet length = 1
Total in-flight flits = 1071 (0 measured)
latency change    = 1
throughput change = 1
0
Class 0:
Minimum packet latency = 5
Average packet latency = 10.7361
Maximum packet latency = 18
Minimum network latency = 5
Average network latency = 10.7361
Maximum network latency = 18
Slowest packet = 12649
Minimum flit latency = 5
Average flit latency = 10.7361
Maximum flit latency = 18
Slowest flit = 12649
Minimum fragmentation = 0
Average fragmentation = 0
Maximum fragmentation = 0
Minimum injected packet rate = 0.363 (at node 53)
Average injected packet rate = 0.399004
Maximum injected packet rate = 0.439 (at node 74)
Minimum accepted packet rate = 0.337 (at node 108)
Average accepted packet rate = 0.394488
Maximum accepted packet rate = 0.449 (at node 248)
Minimum injected flit rate = 0.363 (at node 53)
Average injected flit rate = 0.399004
Maximum injected flit rate = 0.439 (at node 74)
Minimum accepted flit rate = 0.337 (at node 108)
Average accepted flit rate = 0.394488
Maximum accepted flit rate = 0.449 (at node 248)
Average injected packet length = 1
Average accepted packet length = 1
Total in-flight flits = 1156 (0 measured)
latency change    = 0.000169973
throughput change = 0.0113379
0
Class 0:
Minimum packet latency = 5
Average packet latency = 10.7427
Maximum packet latency = 18
Minimum network latency = 5
Average network latency = 10.7427
Maximum network latency = 18
Slowest packet = 111784
Minimum flit latency = 5
Average flit latency = 10.7427
Maximum flit latency = 18
Slowest flit = 111784
Minimum fragmentation = 0
Average fragmentation = 0
Maximum fragmentation = 0
Minimum injected packet rate = 0.34 (at node 186)
Average injected packet rate = 0.399008
Maximum injected packet rate = 0.46 (at node 51)
Minimum accepted packet rate = 0.31 (at node 252)
Average accepted packet rate = 0.399719
Maximum accepted packet rate = 0.502 (at node 8)
Minimum injected flit rate = 0.34 (at node 186)
Average injected flit rate = 0.399008
Maximum injected flit rate = 0.46 (at node 51)
Minimum accepted flit rate = 0.31 (at node 252)
Average accepted flit rate = 0.399719
Maximum accepted flit rate = 0.502 (at node 8)
Average injected packet length = 1
Average accepted packet length = 1
Total in-flight flits = 1065 (0 measured)
latency change    = 0.000616224
throughput change = 0.0130854
Warmed up ...Time used is 1500 cycles
1
Class 0:
Minimum packet latency = 5
Average packet latency = 10.7431
Maximum packet latency = 18
Minimum network latency = 5
Average network latency = 10.7431
Maximum network latency = 18
Slowest packet = 176174
Minimum flit latency = 5
Average flit latency = 10.7477
Maximum flit latency = 18
Slowest flit = 176174
Minimum fragmentation = 0
Average fragmentation = 0
Maximum fragmentation = 0
Minimum injected packet rate = 0.332 (at node 233)
Average injected packet rate = 0.401258
Maximum injected packet rate = 0.464 (at node 239)
Minimum accepted packet rate = 0.318 (at node 217)
Average accepted packet rate = 0.400828
Maximum accepted packet rate = 0.482 (at node 214)
Minimum injected flit rate = 0.332 (at node 233)
Average injected flit rate = 0.401258
Maximum injected flit rate = 0.464 (at node 239)
Minimum accepted flit rate = 0.318 (at node 217)
Average accepted flit rate = 0.400828
Maximum accepted flit rate = 0.482 (at node 214)
Average injected packet length = 1
Average accepted packet length = 1
Total in-flight flits = 1120 (1120 measured)
latency change    = 4.16919e-05
throughput change = 0.00276771
1
Class 0:
Minimum packet latency = 5
Average packet latency = 10.7379
Maximum packet latency = 18
Minimum network latency = 5
Average network latency = 10.7379
Maximum network latency = 18
Slowest packet = 176174
Minimum flit latency = 5
Average flit latency = 10.7403
Maximum flit latency = 18
Slowest flit = 176174
Minimum fragmentation = 0
Average fragmentation = 0
Maximum fragmentation = 0
Minimum injected packet rate = 0.367 (at node 171)
Average injected packet rate = 0.400414
Maximum injected packet rate = 0.437 (at node 220)
Minimum accepted packet rate = 0.355 (at node 114)
Average accepted packet rate = 0.400328
Maximum accepted packet rate = 0.454 (at node 156)
Minimum injected flit rate = 0.367 (at node 171)
Average injected flit rate = 0.400414
Maximum injected flit rate = 0.437 (at node 220)
Minimum accepted flit rate = 0.355 (at node 114)
Average accepted flit rate = 0.400328
Maximum accepted flit rate = 0.454 (at node 156)
Average injected packet length = 1
Average accepted packet length = 1
Total in-flight flits = 1087 (1087 measured)
latency change    = 0.000484211
throughput change = 0.00124898
1
Class 0:
Minimum packet latency = 5
Average packet latency = 10.7421
Maximum packet latency = 18
Minimum network latency = 5
Average network latency = 10.7421
Maximum network latency = 18
Slowest packet = 176174
Minimum flit latency = 5
Average flit latency = 10.7436
Maximum flit latency = 18
Slowest flit = 176174
Minimum fragmentation = 0
Average fragmentation = 0
Maximum fragmentation = 0
Minimum injected packet rate = 0.364 (at node 252)
Average injected packet rate = 0.400297
Maximum injected packet rate = 0.432 (at node 142)
Minimum accepted packet rate = 0.362667 (at node 195)
Average accepted packet rate = 0.400122
Maximum accepted packet rate = 0.438 (at node 169)
Minimum injected flit rate = 0.364 (at node 252)
Average injected flit rate = 0.400297
Maximum injected flit rate = 0.432 (at node 142)
Minimum accepted flit rate = 0.362667 (at node 195)
Average accepted flit rate = 0.400122
Maximum accepted flit rate = 0.438 (at node 169)
Average injected packet length = 1
Average accepted packet length = 1
Total in-flight flits = 1132 (1132 measured)
latency change    = 0.000384885
throughput change = 0.000514166
Draining all recorded packets ...
Draining remaining packets ...
Time taken is 3034 cycles
====== Traffic class 0 ======
Overall minimum packet latency = 5 (1 samples)
Overall average packet latency = 10.7442 (1 samples)
Overall maximum packet latency = 18 (1 samples)
Overall minimum network latency = 5 (1 samples)
Overall average network latency = 10.7442 (1 samples)
Overall maximum network latency = 18 (1 samples)
Overall minimum flit latency = 5 (1 samples)
Overall average flit latency = 10.7457 (1 samples)
Overall maximum flit latency = 19 (1 samples)
Overall minimum fragmentation = 0 (1 samples)
Overall average fragmentation = 0 (1 samples)
Overall maximum fragmentation = 0 (1 samples)
Overall minimum injected packet rate = 0.364 (1 samples)
Overall average injected packet rate = 0.400297 (1 samples)
Overall maximum injected packet rate = 0.432 (1 samples)
Overall minimum accepted packet rate = 0.362667 (1 samples)
Overall average accepted packet rate = 0.400122 (1 samples)
Overall maximum accepted packet rate = 0.438 (1 samples)
Overall minimum injected flit rate = 0.364 (1 samples)
Overall average injected flit rate = 0.400297 (1 samples)
Overall maximum injected flit rate = 0.432 (1 samples)
Overall minimum accepted flit rate = 0.362667 (1 samples)
Overall average accepted flit rate = 0.400122 (1 samples)
Overall maximum accepted flit rate = 0.438 (1 samples)
Overall average injected packet size = 1 (1 samples)
Overall average accepted packet size = 1 (1 samples)
Overall average hops = 2.75221 (1 samples)
Total run time 10.3966
