BEGIN Configuration File: ./FBF-3.conf
injection_rate = 0.1;
traffic = shuffle;
routing_function = adaptive_xyyx;
vc_buf_size = 16;
topology = flatfly;
use_noc_latency = 0;
hold_switch_for_packet=0;

c = 4;
k = 8;
n = 2;

x  = 8;
y  = 8;
xr = 2;
yr = 2;

packet_size  = 1;
num_vcs      = 2;
vc_allocator = separable_input_first; 
sw_allocator = separable_input_first;

alloc_iters   = 1;
sample_period = 500;

wait_for_tail_credit = 0;
use_read_write       = 0;

credit_delay   = 2;
routing_delay  = 0;
vc_alloc_delay = 1;
sw_alloc_delay = 1;
st_final_delay = 1;

input_speedup     = 1;
output_speedup    = 1;
internal_speedup  = 2.0;

warmup_periods = 3;
sim_count      = 1;

priority = none;
injection_rate_uses_flits=1;

END Configuration File: ./FBF-3.conf
Number of nodes: 256
Number of routers: 64
 Flat Bufferfly 
 k = 8 n = 2 c = 4
 each switch - total radix =  18
 # of switches = 64
 # of channels = 896
 # of nodes ( size of network ) = 256
0
Class 0:
Minimum packet latency = 5
Average packet latency = 10.4173
Maximum packet latency = 15
Minimum network latency = 5
Average network latency = 10.4173
Maximum network latency = 15
Slowest packet = 1204
Minimum flit latency = 5
Average flit latency = 10.4173
Maximum flit latency = 15
Slowest flit = 1204
Minimum fragmentation = 0
Average fragmentation = 0
Maximum fragmentation = 0
Minimum injected packet rate = 0.066 (at node 9)
Average injected packet rate = 0.0990625
Maximum injected packet rate = 0.142 (at node 220)
Minimum accepted packet rate = 0.064 (at node 18)
Average accepted packet rate = 0.0971641
Maximum accepted packet rate = 0.14 (at node 185)
Minimum injected flit rate = 0.066 (at node 9)
Average injected flit rate = 0.0990625
Maximum injected flit rate = 0.142 (at node 220)
Minimum accepted flit rate = 0.064 (at node 18)
Average accepted flit rate = 0.0971641
Maximum accepted flit rate = 0.14 (at node 185)
Average injected packet length = 1
Average accepted packet length = 1
Total in-flight flits = 243 (0 measured)
latency change    = 1
throughput change = 1
0
Class 0:
Minimum packet latency = 5
Average packet latency = 10.408
Maximum packet latency = 16
Minimum network latency = 5
Average network latency = 10.408
Maximum network latency = 16
Slowest packet = 17481
Minimum flit latency = 5
Average flit latency = 10.408
Maximum flit latency = 16
Slowest flit = 17481
Minimum fragmentation = 0
Average fragmentation = 0
Maximum fragmentation = 0
Minimum injected packet rate = 0.072 (at node 166)
Average injected packet rate = 0.0991563
Maximum injected packet rate = 0.13 (at node 22)
Minimum accepted packet rate = 0.072 (at node 77)
Average accepted packet rate = 0.0980313
Maximum accepted packet rate = 0.127 (at node 44)
Minimum injected flit rate = 0.072 (at node 166)
Average injected flit rate = 0.0991563
Maximum injected flit rate = 0.13 (at node 22)
Minimum accepted flit rate = 0.072 (at node 77)
Average accepted flit rate = 0.0980313
Maximum accepted flit rate = 0.127 (at node 44)
Average injected packet length = 1
Average accepted packet length = 1
Total in-flight flits = 288 (0 measured)
latency change    = 0.000894495
throughput change = 0.00884603
0
Class 0:
Minimum packet latency = 5
Average packet latency = 10.4628
Maximum packet latency = 16
Minimum network latency = 5
Average network latency = 10.4628
Maximum network latency = 16
Slowest packet = 31366
Minimum flit latency = 5
Average flit latency = 10.4628
Maximum flit latency = 16
Slowest flit = 31366
Minimum fragmentation = 0
Average fragmentation = 0
Maximum fragmentation = 0
Minimum injected packet rate = 0.064 (at node 15)
Average injected packet rate = 0.0995859
Maximum injected packet rate = 0.142 (at node 21)
Minimum accepted packet rate = 0.062 (at node 30)
Average accepted packet rate = 0.0997031
Maximum accepted packet rate = 0.14 (at node 78)
Minimum injected flit rate = 0.064 (at node 15)
Average injected flit rate = 0.0995859
Maximum injected flit rate = 0.142 (at node 21)
Minimum accepted flit rate = 0.062 (at node 30)
Average accepted flit rate = 0.0997031
Maximum accepted flit rate = 0.14 (at node 78)
Average injected packet length = 1
Average accepted packet length = 1
Total in-flight flits = 273 (0 measured)
latency change    = 0.00523635
throughput change = 0.0167685
Warmed up ...Time used is 1500 cycles
1
Class 0:
Minimum packet latency = 5
Average packet latency = 10.4271
Maximum packet latency = 16
Minimum network latency = 5
Average network latency = 10.4271
Maximum network latency = 16
Slowest packet = 39562
Minimum flit latency = 5
Average flit latency = 10.4331
Maximum flit latency = 16
Slowest flit = 39562
Minimum fragmentation = 0
Average fragmentation = 0
Maximum fragmentation = 0
Minimum injected packet rate = 0.058 (at node 40)
Average injected packet rate = 0.0990859
Maximum injected packet rate = 0.15 (at node 87)
Minimum accepted packet rate = 0.06 (at node 80)
Average accepted packet rate = 0.0991406
Maximum accepted packet rate = 0.148 (at node 29)
Minimum injected flit rate = 0.058 (at node 40)
Average injected flit rate = 0.0990859
Maximum injected flit rate = 0.15 (at node 87)
Minimum accepted flit rate = 0.06 (at node 80)
Average accepted flit rate = 0.0991406
Maximum accepted flit rate = 0.148 (at node 29)
Average injected packet length = 1
Average accepted packet length = 1
Total in-flight flits = 266 (266 measured)
latency change    = 0.0034242
throughput change = 0.00567376
1
Class 0:
Minimum packet latency = 5
Average packet latency = 10.4377
Maximum packet latency = 16
Minimum network latency = 5
Average network latency = 10.4377
Maximum network latency = 16
Slowest packet = 39562
Minimum flit latency = 5
Average flit latency = 10.4406
Maximum flit latency = 16
Slowest flit = 39562
Minimum fragmentation = 0
Average fragmentation = 0
Maximum fragmentation = 0
Minimum injected packet rate = 0.072 (at node 39)
Average injected packet rate = 0.0996875
Maximum injected packet rate = 0.132 (at node 87)
Minimum accepted packet rate = 0.074 (at node 78)
Average accepted packet rate = 0.0996602
Maximum accepted packet rate = 0.13 (at node 174)
Minimum injected flit rate = 0.072 (at node 39)
Average injected flit rate = 0.0996875
Maximum injected flit rate = 0.132 (at node 87)
Minimum accepted flit rate = 0.074 (at node 78)
Average accepted flit rate = 0.0996602
Maximum accepted flit rate = 0.13 (at node 174)
Average injected packet length = 1
Average accepted packet length = 1
Total in-flight flits = 280 (280 measured)
latency change    = 0.00101579
throughput change = 0.00521303
1
Class 0:
Minimum packet latency = 5
Average packet latency = 10.4286
Maximum packet latency = 16
Minimum network latency = 5
Average network latency = 10.4286
Maximum network latency = 16
Slowest packet = 39562
Minimum flit latency = 5
Average flit latency = 10.4306
Maximum flit latency = 16
Slowest flit = 39562
Minimum fragmentation = 0
Average fragmentation = 0
Maximum fragmentation = 0
Minimum injected packet rate = 0.078 (at node 39)
Average injected packet rate = 0.100076
Maximum injected packet rate = 0.128667 (at node 87)
Minimum accepted packet rate = 0.0786667 (at node 78)
Average accepted packet rate = 0.100089
Maximum accepted packet rate = 0.128 (at node 174)
Minimum injected flit rate = 0.078 (at node 39)
Average injected flit rate = 0.100076
Maximum injected flit rate = 0.128667 (at node 87)
Minimum accepted flit rate = 0.0786667 (at node 78)
Average accepted flit rate = 0.100089
Maximum accepted flit rate = 0.128 (at node 174)
Average injected packet length = 1
Average accepted packet length = 1
Total in-flight flits = 268 (268 measured)
latency change    = 0.000870027
throughput change = 0.00428006
Draining all recorded packets ...
Draining remaining packets ...
Time taken is 3028 cycles
====== Traffic class 0 ======
Overall minimum packet latency = 5 (1 samples)
Overall average packet latency = 10.4307 (1 samples)
Overall maximum packet latency = 16 (1 samples)
Overall minimum network latency = 5 (1 samples)
Overall average network latency = 10.4307 (1 samples)
Overall maximum network latency = 16 (1 samples)
Overall minimum flit latency = 5 (1 samples)
Overall average flit latency = 10.4328 (1 samples)
Overall maximum flit latency = 16 (1 samples)
Overall minimum fragmentation = 0 (1 samples)
Overall average fragmentation = 0 (1 samples)
Overall maximum fragmentation = 0 (1 samples)
Overall minimum injected packet rate = 0.078 (1 samples)
Overall average injected packet rate = 0.100076 (1 samples)
Overall maximum injected packet rate = 0.128667 (1 samples)
Overall minimum accepted packet rate = 0.0786667 (1 samples)
Overall average accepted packet rate = 0.100089 (1 samples)
Overall maximum accepted packet rate = 0.128 (1 samples)
Overall minimum injected flit rate = 0.078 (1 samples)
Overall average injected flit rate = 0.100076 (1 samples)
Overall maximum injected flit rate = 0.128667 (1 samples)
Overall minimum accepted flit rate = 0.0786667 (1 samples)
Overall average accepted flit rate = 0.100089 (1 samples)
Overall maximum accepted flit rate = 0.128 (1 samples)
Overall average injected packet size = 1 (1 samples)
Overall average accepted packet size = 1 (1 samples)
Overall average hops = 2.74959 (1 samples)
Total run time 3.64704
