BEGIN Configuration File: ./FBF-3.conf
injection_rate = 0.5;
traffic = shuffle;
routing_function = ugal;
vc_buf_size = 16;
topology = flatfly;
use_noc_latency = 0;
hold_switch_for_packet=0;

c = 4;
k = 8;
n = 2;

x  = 8;
y  = 8;
xr = 2;
yr = 2;

packet_size  = 1;
num_vcs      = 2;
vc_allocator = separable_input_first; 
sw_allocator = separable_input_first;

alloc_iters   = 1;
sample_period = 500;

wait_for_tail_credit = 0;
use_read_write       = 0;

credit_delay   = 2;
routing_delay  = 0;
vc_alloc_delay = 1;
sw_alloc_delay = 1;
st_final_delay = 1;

input_speedup     = 1;
output_speedup    = 1;
internal_speedup  = 2.0;

warmup_periods = 3;
sim_count      = 1;

priority = none;
injection_rate_uses_flits=1;

END Configuration File: ./FBF-3.conf
Number of nodes: 256
Number of routers: 64
 Flat Bufferfly 
 k = 8 n = 2 c = 4
 each switch - total radix =  18
 # of switches = 64
 # of channels = 896
 # of nodes ( size of network ) = 256
0
Class 0:
Minimum packet latency = 5
Average packet latency = 14.2916
Maximum packet latency = 35
Minimum network latency = 5
Average network latency = 14.2916
Maximum network latency = 35
Slowest packet = 11683
Minimum flit latency = 5
Average flit latency = 14.2916
Maximum flit latency = 35
Slowest flit = 11683
Minimum fragmentation = 0
Average fragmentation = 0
Maximum fragmentation = 0
Minimum injected packet rate = 0.426 (at node 110)
Average injected packet rate = 0.499609
Maximum injected packet rate = 0.562 (at node 22)
Minimum accepted packet rate = 0.412 (at node 220)
Average accepted packet rate = 0.485211
Maximum accepted packet rate = 0.55 (at node 44)
Minimum injected flit rate = 0.426 (at node 110)
Average injected flit rate = 0.499609
Maximum injected flit rate = 0.562 (at node 22)
Minimum accepted flit rate = 0.412 (at node 220)
Average accepted flit rate = 0.485211
Maximum accepted flit rate = 0.55 (at node 44)
Average injected packet length = 1
Average accepted packet length = 1
Total in-flight flits = 1843 (0 measured)
latency change    = 1
throughput change = 1
0
Class 0:
Minimum packet latency = 5
Average packet latency = 14.3265
Maximum packet latency = 35
Minimum network latency = 5
Average network latency = 14.3265
Maximum network latency = 35
Slowest packet = 11683
Minimum flit latency = 5
Average flit latency = 14.3265
Maximum flit latency = 35
Slowest flit = 11683
Minimum fragmentation = 0
Average fragmentation = 0
Maximum fragmentation = 0
Minimum injected packet rate = 0.448 (at node 173)
Average injected packet rate = 0.499969
Maximum injected packet rate = 0.541 (at node 74)
Minimum accepted packet rate = 0.44 (at node 91)
Average accepted packet rate = 0.49259
Maximum accepted packet rate = 0.534 (at node 148)
Minimum injected flit rate = 0.448 (at node 173)
Average injected flit rate = 0.499969
Maximum injected flit rate = 0.541 (at node 74)
Minimum accepted flit rate = 0.44 (at node 91)
Average accepted flit rate = 0.49259
Maximum accepted flit rate = 0.534 (at node 148)
Average injected packet length = 1
Average accepted packet length = 1
Total in-flight flits = 1889 (0 measured)
latency change    = 0.00243619
throughput change = 0.0149798
0
Class 0:
Minimum packet latency = 5
Average packet latency = 14.3561
Maximum packet latency = 37
Minimum network latency = 5
Average network latency = 14.3561
Maximum network latency = 37
Slowest packet = 140462
Minimum flit latency = 5
Average flit latency = 14.3561
Maximum flit latency = 37
Slowest flit = 140462
Minimum fragmentation = 0
Average fragmentation = 0
Maximum fragmentation = 0
Minimum injected packet rate = 0.444 (at node 152)
Average injected packet rate = 0.500117
Maximum injected packet rate = 0.562 (at node 51)
Minimum accepted packet rate = 0.448 (at node 59)
Average accepted packet rate = 0.500508
Maximum accepted packet rate = 0.558 (at node 102)
Minimum injected flit rate = 0.444 (at node 152)
Average injected flit rate = 0.500117
Maximum injected flit rate = 0.562 (at node 51)
Minimum accepted flit rate = 0.448 (at node 59)
Average accepted flit rate = 0.500508
Maximum accepted flit rate = 0.558 (at node 102)
Average injected packet length = 1
Average accepted packet length = 1
Total in-flight flits = 1839 (0 measured)
latency change    = 0.00206164
throughput change = 0.0158199
Warmed up ...Time used is 1500 cycles
1
Class 0:
Minimum packet latency = 5
Average packet latency = 14.3664
Maximum packet latency = 38
Minimum network latency = 5
Average network latency = 14.3664
Maximum network latency = 38
Slowest packet = 202343
Minimum flit latency = 5
Average flit latency = 14.3969
Maximum flit latency = 38
Slowest flit = 202343
Minimum fragmentation = 0
Average fragmentation = 0
Maximum fragmentation = 0
Minimum injected packet rate = 0.44 (at node 50)
Average injected packet rate = 0.501266
Maximum injected packet rate = 0.562 (at node 115)
Minimum accepted packet rate = 0.442 (at node 100)
Average accepted packet rate = 0.501164
Maximum accepted packet rate = 0.56 (at node 174)
Minimum injected flit rate = 0.44 (at node 50)
Average injected flit rate = 0.501266
Maximum injected flit rate = 0.562 (at node 115)
Minimum accepted flit rate = 0.442 (at node 100)
Average accepted flit rate = 0.501164
Maximum accepted flit rate = 0.56 (at node 174)
Average injected packet length = 1
Average accepted packet length = 1
Total in-flight flits = 1852 (1852 measured)
latency change    = 0.000718172
throughput change = 0.00130945
1
Class 0:
Minimum packet latency = 5
Average packet latency = 14.3795
Maximum packet latency = 38
Minimum network latency = 5
Average network latency = 14.3795
Maximum network latency = 38
Slowest packet = 202343
Minimum flit latency = 5
Average flit latency = 14.3946
Maximum flit latency = 38
Slowest flit = 202343
Minimum fragmentation = 0
Average fragmentation = 0
Maximum fragmentation = 0
Minimum injected packet rate = 0.46 (at node 50)
Average injected packet rate = 0.500695
Maximum injected packet rate = 0.546 (at node 115)
Minimum accepted packet rate = 0.461 (at node 248)
Average accepted packet rate = 0.500938
Maximum accepted packet rate = 0.548 (at node 230)
Minimum injected flit rate = 0.46 (at node 50)
Average injected flit rate = 0.500695
Maximum injected flit rate = 0.546 (at node 115)
Minimum accepted flit rate = 0.461 (at node 248)
Average accepted flit rate = 0.500938
Maximum accepted flit rate = 0.548 (at node 230)
Average injected packet length = 1
Average accepted packet length = 1
Total in-flight flits = 1777 (1777 measured)
latency change    = 0.000914114
throughput change = 0.000452277
1
Class 0:
Minimum packet latency = 5
Average packet latency = 14.3568
Maximum packet latency = 38
Minimum network latency = 5
Average network latency = 14.3568
Maximum network latency = 38
Slowest packet = 202343
Minimum flit latency = 5
Average flit latency = 14.3671
Maximum flit latency = 38
Slowest flit = 202343
Minimum fragmentation = 0
Average fragmentation = 0
Maximum fragmentation = 0
Minimum injected packet rate = 0.465333 (at node 252)
Average injected packet rate = 0.500591
Maximum injected packet rate = 0.534 (at node 42)
Minimum accepted packet rate = 0.464 (at node 249)
Average accepted packet rate = 0.500503
Maximum accepted packet rate = 0.534 (at node 84)
Minimum injected flit rate = 0.465333 (at node 252)
Average injected flit rate = 0.500591
Maximum injected flit rate = 0.534 (at node 42)
Minimum accepted flit rate = 0.464 (at node 249)
Average accepted flit rate = 0.500503
Maximum accepted flit rate = 0.534 (at node 84)
Average injected packet length = 1
Average accepted packet length = 1
Total in-flight flits = 1873 (1873 measured)
latency change    = 0.00158463
throughput change = 0.000868918
Draining all recorded packets ...
Draining remaining packets ...
Time taken is 3057 cycles
====== Traffic class 0 ======
Overall minimum packet latency = 5 (1 samples)
Overall average packet latency = 14.3684 (1 samples)
Overall maximum packet latency = 38 (1 samples)
Overall minimum network latency = 5 (1 samples)
Overall average network latency = 14.3684 (1 samples)
Overall maximum network latency = 38 (1 samples)
Overall minimum flit latency = 5 (1 samples)
Overall average flit latency = 14.3789 (1 samples)
Overall maximum flit latency = 38 (1 samples)
Overall minimum fragmentation = 0 (1 samples)
Overall average fragmentation = 0 (1 samples)
Overall maximum fragmentation = 0 (1 samples)
Overall minimum injected packet rate = 0.465333 (1 samples)
Overall average injected packet rate = 0.500591 (1 samples)
Overall maximum injected packet rate = 0.534 (1 samples)
Overall minimum accepted packet rate = 0.464 (1 samples)
Overall average accepted packet rate = 0.500503 (1 samples)
Overall maximum accepted packet rate = 0.534 (1 samples)
Overall minimum injected flit rate = 0.465333 (1 samples)
Overall average injected flit rate = 0.500591 (1 samples)
Overall maximum injected flit rate = 0.534 (1 samples)
Overall minimum accepted flit rate = 0.464 (1 samples)
Overall average accepted flit rate = 0.500503 (1 samples)
Overall maximum accepted flit rate = 0.534 (1 samples)
Overall average injected packet size = 1 (1 samples)
Overall average accepted packet size = 1 (1 samples)
Overall average hops = 3.40684 (1 samples)
Total run time 14.8507
