BEGIN Configuration File: ./FBF-3.conf
injection_rate = 0.2;
traffic = asymmetric;
routing_function = valiant;
vc_buf_size = 16;
topology = flatfly;
use_noc_latency = 0;
hold_switch_for_packet=0;

c = 4;
k = 8;
n = 2;

x  = 8;
y  = 8;
xr = 2;
yr = 2;

packet_size  = 1;
num_vcs      = 2;
vc_allocator = separable_input_first; 
sw_allocator = separable_input_first;

alloc_iters   = 1;
sample_period = 500;

wait_for_tail_credit = 0;
use_read_write       = 0;

credit_delay   = 2;
routing_delay  = 0;
vc_alloc_delay = 1;
sw_alloc_delay = 1;
st_final_delay = 1;

input_speedup     = 1;
output_speedup    = 1;
internal_speedup  = 2.0;

warmup_periods = 3;
sim_count      = 1;

priority = none;
injection_rate_uses_flits=1;

END Configuration File: ./FBF-3.conf
Number of nodes: 256
Number of routers: 64
 Flat Bufferfly 
 k = 8 n = 2 c = 4
 each switch - total radix =  18
 # of switches = 64
 # of channels = 896
 # of nodes ( size of network ) = 256
0
Class 0:
Minimum packet latency = 5
Average packet latency = 10.3027
Maximum packet latency = 22
Minimum network latency = 5
Average network latency = 10.3027
Maximum network latency = 22
Slowest packet = 16139
Minimum flit latency = 5
Average flit latency = 10.3027
Maximum flit latency = 22
Slowest flit = 16139
Minimum fragmentation = 0
Average fragmentation = 0
Maximum fragmentation = 0
Minimum injected packet rate = 0.158 (at node 1)
Average injected packet rate = 0.198797
Maximum injected packet rate = 0.254 (at node 239)
Minimum accepted packet rate = 0.15 (at node 76)
Average accepted packet rate = 0.194664
Maximum accepted packet rate = 0.242 (at node 81)
Minimum injected flit rate = 0.158 (at node 1)
Average injected flit rate = 0.198797
Maximum injected flit rate = 0.254 (at node 239)
Minimum accepted flit rate = 0.15 (at node 76)
Average accepted flit rate = 0.194664
Maximum accepted flit rate = 0.242 (at node 81)
Average injected packet length = 1
Average accepted packet length = 1
Total in-flight flits = 529 (0 measured)
latency change    = 1
throughput change = 1
0
Class 0:
Minimum packet latency = 5
Average packet latency = 10.3338
Maximum packet latency = 22
Minimum network latency = 5
Average network latency = 10.3338
Maximum network latency = 22
Slowest packet = 16139
Minimum flit latency = 5
Average flit latency = 10.3338
Maximum flit latency = 22
Slowest flit = 16139
Minimum fragmentation = 0
Average fragmentation = 0
Maximum fragmentation = 0
Minimum injected packet rate = 0.17 (at node 104)
Average injected packet rate = 0.199156
Maximum injected packet rate = 0.232 (at node 22)
Minimum accepted packet rate = 0.147 (at node 45)
Average accepted packet rate = 0.197004
Maximum accepted packet rate = 0.237 (at node 134)
Minimum injected flit rate = 0.17 (at node 104)
Average injected flit rate = 0.199156
Maximum injected flit rate = 0.232 (at node 22)
Minimum accepted flit rate = 0.147 (at node 45)
Average accepted flit rate = 0.197004
Maximum accepted flit rate = 0.237 (at node 134)
Average injected packet length = 1
Average accepted packet length = 1
Total in-flight flits = 551 (0 measured)
latency change    = 0.00301183
throughput change = 0.0118771
0
Class 0:
Minimum packet latency = 5
Average packet latency = 10.4452
Maximum packet latency = 21
Minimum network latency = 5
Average network latency = 10.4452
Maximum network latency = 21
Slowest packet = 60797
Minimum flit latency = 5
Average flit latency = 10.4452
Maximum flit latency = 21
Slowest flit = 60797
Minimum fragmentation = 0
Average fragmentation = 0
Maximum fragmentation = 0
Minimum injected packet rate = 0.148 (at node 29)
Average injected packet rate = 0.199695
Maximum injected packet rate = 0.264 (at node 39)
Minimum accepted packet rate = 0.146 (at node 24)
Average accepted packet rate = 0.200063
Maximum accepted packet rate = 0.264 (at node 149)
Minimum injected flit rate = 0.148 (at node 29)
Average injected flit rate = 0.199695
Maximum injected flit rate = 0.264 (at node 39)
Minimum accepted flit rate = 0.146 (at node 24)
Average accepted flit rate = 0.200063
Maximum accepted flit rate = 0.264 (at node 149)
Average injected packet length = 1
Average accepted packet length = 1
Total in-flight flits = 504 (0 measured)
latency change    = 0.010658
throughput change = 0.0152882
Warmed up ...Time used is 1500 cycles
1
Class 0:
Minimum packet latency = 5
Average packet latency = 10.2881
Maximum packet latency = 21
Minimum network latency = 5
Average network latency = 10.2881
Maximum network latency = 21
Slowest packet = 77822
Minimum flit latency = 5
Average flit latency = 10.3503
Maximum flit latency = 21
Slowest flit = 76345
Minimum fragmentation = 0
Average fragmentation = 0
Maximum fragmentation = 0
Minimum injected packet rate = 0.142 (at node 174)
Average injected packet rate = 0.1995
Maximum injected packet rate = 0.252 (at node 122)
Minimum accepted packet rate = 0.16 (at node 19)
Average accepted packet rate = 0.199078
Maximum accepted packet rate = 0.262 (at node 58)
Minimum injected flit rate = 0.142 (at node 174)
Average injected flit rate = 0.1995
Maximum injected flit rate = 0.252 (at node 122)
Minimum accepted flit rate = 0.16 (at node 19)
Average accepted flit rate = 0.199078
Maximum accepted flit rate = 0.262 (at node 58)
Average injected packet length = 1
Average accepted packet length = 1
Total in-flight flits = 558 (558 measured)
latency change    = 0.0152642
throughput change = 0.00494467
1
Class 0:
Minimum packet latency = 5
Average packet latency = 10.3683
Maximum packet latency = 23
Minimum network latency = 5
Average network latency = 10.3683
Maximum network latency = 23
Slowest packet = 119645
Minimum flit latency = 5
Average flit latency = 10.3984
Maximum flit latency = 23
Slowest flit = 119645
Minimum fragmentation = 0
Average fragmentation = 0
Maximum fragmentation = 0
Minimum injected packet rate = 0.165 (at node 191)
Average injected packet rate = 0.200563
Maximum injected packet rate = 0.24 (at node 53)
Minimum accepted packet rate = 0.162 (at node 90)
Average accepted packet rate = 0.200375
Maximum accepted packet rate = 0.233 (at node 236)
Minimum injected flit rate = 0.165 (at node 191)
Average injected flit rate = 0.200563
Maximum injected flit rate = 0.24 (at node 53)
Minimum accepted flit rate = 0.162 (at node 90)
Average accepted flit rate = 0.200375
Maximum accepted flit rate = 0.233 (at node 236)
Average injected packet length = 1
Average accepted packet length = 1
Total in-flight flits = 552 (552 measured)
latency change    = 0.00773057
throughput change = 0.00647224
1
Class 0:
Minimum packet latency = 5
Average packet latency = 10.3869
Maximum packet latency = 23
Minimum network latency = 5
Average network latency = 10.3869
Maximum network latency = 23
Slowest packet = 119645
Minimum flit latency = 5
Average flit latency = 10.4069
Maximum flit latency = 23
Slowest flit = 119645
Minimum fragmentation = 0
Average fragmentation = 0
Maximum fragmentation = 0
Minimum injected packet rate = 0.169333 (at node 174)
Average injected packet rate = 0.200125
Maximum injected packet rate = 0.230667 (at node 163)
Minimum accepted packet rate = 0.163333 (at node 90)
Average accepted packet rate = 0.200044
Maximum accepted packet rate = 0.228 (at node 222)
Minimum injected flit rate = 0.169333 (at node 174)
Average injected flit rate = 0.200125
Maximum injected flit rate = 0.230667 (at node 163)
Minimum accepted flit rate = 0.163333 (at node 90)
Average accepted flit rate = 0.200044
Maximum accepted flit rate = 0.228 (at node 222)
Average injected packet length = 1
Average accepted packet length = 1
Total in-flight flits = 535 (535 measured)
latency change    = 0.00179266
throughput change = 0.00165328
Draining all recorded packets ...
Draining remaining packets ...
Time taken is 3041 cycles
====== Traffic class 0 ======
Overall minimum packet latency = 5 (1 samples)
Overall average packet latency = 10.4094 (1 samples)
Overall maximum packet latency = 23 (1 samples)
Overall minimum network latency = 5 (1 samples)
Overall average network latency = 10.4094 (1 samples)
Overall maximum network latency = 23 (1 samples)
Overall minimum flit latency = 5 (1 samples)
Overall average flit latency = 10.4309 (1 samples)
Overall maximum flit latency = 23 (1 samples)
Overall minimum fragmentation = 0 (1 samples)
Overall average fragmentation = 0 (1 samples)
Overall maximum fragmentation = 0 (1 samples)
Overall minimum injected packet rate = 0.169333 (1 samples)
Overall average injected packet rate = 0.200125 (1 samples)
Overall maximum injected packet rate = 0.230667 (1 samples)
Overall minimum accepted packet rate = 0.163333 (1 samples)
Overall average accepted packet rate = 0.200044 (1 samples)
Overall maximum accepted packet rate = 0.228 (1 samples)
Overall minimum injected flit rate = 0.169333 (1 samples)
Overall average injected flit rate = 0.200125 (1 samples)
Overall maximum injected flit rate = 0.230667 (1 samples)
Overall minimum accepted flit rate = 0.163333 (1 samples)
Overall average accepted flit rate = 0.200044 (1 samples)
Overall maximum accepted flit rate = 0.228 (1 samples)
Overall average injected packet size = 1 (1 samples)
Overall average accepted packet size = 1 (1 samples)
Overall average hops = 2.74617 (1 samples)
Total run time 5.7194
