BEGIN Configuration File: ./FBF-3.conf
injection_rate = 0.01;
traffic = bitrev;
routing_function = xyyx;
vc_buf_size = 16;
topology = flatfly;
use_noc_latency = 0;
hold_switch_for_packet=0;

c = 4;
k = 8;
n = 2;

x  = 8;
y  = 8;
xr = 2;
yr = 2;

packet_size  = 1;
num_vcs      = 2;
vc_allocator = separable_input_first; 
sw_allocator = separable_input_first;

alloc_iters   = 1;
sample_period = 500;

wait_for_tail_credit = 0;
use_read_write       = 0;

credit_delay   = 2;
routing_delay  = 0;
vc_alloc_delay = 1;
sw_alloc_delay = 1;
st_final_delay = 1;

input_speedup     = 1;
output_speedup    = 1;
internal_speedup  = 2.0;

warmup_periods = 3;
sim_count      = 1;

priority = none;
injection_rate_uses_flits=1;

END Configuration File: ./FBF-3.conf
Number of nodes: 256
Number of routers: 64
 Flat Bufferfly 
 k = 8 n = 2 c = 4
 each switch - total radix =  18
 # of switches = 64
 # of channels = 896
 # of nodes ( size of network ) = 256
0
Class 0:
Minimum packet latency = 5
Average packet latency = 10.2335
Maximum packet latency = 12
Minimum network latency = 5
Average network latency = 10.2335
Maximum network latency = 12
Slowest packet = 236
Minimum flit latency = 5
Average flit latency = 10.2335
Maximum flit latency = 12
Slowest flit = 236
Minimum fragmentation = 0
Average fragmentation = 0
Maximum fragmentation = 0
Minimum injected packet rate = 0 (at node 166)
Average injected packet rate = 0.00977344
Maximum injected packet rate = 0.024 (at node 35)
Minimum accepted packet rate = 0 (at node 101)
Average accepted packet rate = 0.00957031
Maximum accepted packet rate = 0.024 (at node 196)
Minimum injected flit rate = 0 (at node 166)
Average injected flit rate = 0.00977344
Maximum injected flit rate = 0.024 (at node 35)
Minimum accepted flit rate = 0 (at node 101)
Average accepted flit rate = 0.00957031
Maximum accepted flit rate = 0.024 (at node 196)
Average injected packet length = 1
Average accepted packet length = 1
Total in-flight flits = 26 (0 measured)
latency change    = 1
throughput change = 1
0
Class 0:
Minimum packet latency = 5
Average packet latency = 10.2644
Maximum packet latency = 12
Minimum network latency = 5
Average network latency = 10.2644
Maximum network latency = 12
Slowest packet = 236
Minimum flit latency = 5
Average flit latency = 10.2644
Maximum flit latency = 12
Slowest flit = 236
Minimum fragmentation = 0
Average fragmentation = 0
Maximum fragmentation = 0
Minimum injected packet rate = 0.003 (at node 30)
Average injected packet rate = 0.00998047
Maximum injected packet rate = 0.022 (at node 170)
Minimum accepted packet rate = 0.003 (at node 7)
Average accepted packet rate = 0.00986719
Maximum accepted packet rate = 0.022 (at node 85)
Minimum injected flit rate = 0.003 (at node 30)
Average injected flit rate = 0.00998047
Maximum injected flit rate = 0.022 (at node 170)
Minimum accepted flit rate = 0.003 (at node 7)
Average accepted flit rate = 0.00986719
Maximum accepted flit rate = 0.022 (at node 85)
Average injected packet length = 1
Average accepted packet length = 1
Total in-flight flits = 29 (0 measured)
latency change    = 0.00301822
throughput change = 0.0300871
0
Class 0:
Minimum packet latency = 5
Average packet latency = 10.2316
Maximum packet latency = 12
Minimum network latency = 5
Average network latency = 10.2316
Maximum network latency = 12
Slowest packet = 2658
Minimum flit latency = 5
Average flit latency = 10.2316
Maximum flit latency = 12
Slowest flit = 2658
Minimum fragmentation = 0
Average fragmentation = 0
Maximum fragmentation = 0
Minimum injected packet rate = 0 (at node 94)
Average injected packet rate = 0.00953906
Maximum injected packet rate = 0.02 (at node 10)
Minimum accepted packet rate = 0 (at node 35)
Average accepted packet rate = 0.00954687
Maximum accepted packet rate = 0.022 (at node 80)
Minimum injected flit rate = 0 (at node 94)
Average injected flit rate = 0.00953906
Maximum injected flit rate = 0.02 (at node 10)
Minimum accepted flit rate = 0 (at node 35)
Average accepted flit rate = 0.00954687
Maximum accepted flit rate = 0.022 (at node 80)
Average injected packet length = 1
Average accepted packet length = 1
Total in-flight flits = 28 (0 measured)
latency change    = 0.00321183
throughput change = 0.0335516
Warmed up ...Time used is 1500 cycles
1
Class 0:
Minimum packet latency = 5
Average packet latency = 10.1868
Maximum packet latency = 12
Minimum network latency = 5
Average network latency = 10.1868
Maximum network latency = 12
Slowest packet = 4013
Minimum flit latency = 5
Average flit latency = 10.1997
Maximum flit latency = 12
Slowest flit = 4013
Minimum fragmentation = 0
Average fragmentation = 0
Maximum fragmentation = 0
Minimum injected packet rate = 0 (at node 12)
Average injected packet rate = 0.0101563
Maximum injected packet rate = 0.024 (at node 9)
Minimum accepted packet rate = 0 (at node 47)
Average accepted packet rate = 0.0101328
Maximum accepted packet rate = 0.022 (at node 17)
Minimum injected flit rate = 0 (at node 12)
Average injected flit rate = 0.0101563
Maximum injected flit rate = 0.024 (at node 9)
Minimum accepted flit rate = 0 (at node 47)
Average accepted flit rate = 0.0101328
Maximum accepted flit rate = 0.022 (at node 17)
Average injected packet length = 1
Average accepted packet length = 1
Total in-flight flits = 31 (31 measured)
latency change    = 0.00440045
throughput change = 0.0578258
1
Class 0:
Minimum packet latency = 5
Average packet latency = 10.2555
Maximum packet latency = 12
Minimum network latency = 5
Average network latency = 10.2555
Maximum network latency = 12
Slowest packet = 4013
Minimum flit latency = 5
Average flit latency = 10.2613
Maximum flit latency = 12
Slowest flit = 4013
Minimum fragmentation = 0
Average fragmentation = 0
Maximum fragmentation = 0
Minimum injected packet rate = 0.003 (at node 6)
Average injected packet rate = 0.00992578
Maximum injected packet rate = 0.02 (at node 136)
Minimum accepted packet rate = 0.003 (at node 96)
Average accepted packet rate = 0.00992578
Maximum accepted packet rate = 0.02 (at node 17)
Minimum injected flit rate = 0.003 (at node 6)
Average injected flit rate = 0.00992578
Maximum injected flit rate = 0.02 (at node 136)
Minimum accepted flit rate = 0.003 (at node 96)
Average accepted flit rate = 0.00992578
Maximum accepted flit rate = 0.02 (at node 17)
Average injected packet length = 1
Average accepted packet length = 1
Total in-flight flits = 28 (28 measured)
latency change    = 0.00669987
throughput change = 0.0208579
1
Class 0:
Minimum packet latency = 5
Average packet latency = 10.2687
Maximum packet latency = 12
Minimum network latency = 5
Average network latency = 10.2687
Maximum network latency = 12
Slowest packet = 4013
Minimum flit latency = 5
Average flit latency = 10.2725
Maximum flit latency = 12
Slowest flit = 4013
Minimum fragmentation = 0
Average fragmentation = 0
Maximum fragmentation = 0
Minimum injected packet rate = 0.004 (at node 27)
Average injected packet rate = 0.0100938
Maximum injected packet rate = 0.018 (at node 136)
Minimum accepted packet rate = 0.004 (at node 216)
Average accepted packet rate = 0.0100833
Maximum accepted packet rate = 0.018 (at node 17)
Minimum injected flit rate = 0.004 (at node 27)
Average injected flit rate = 0.0100938
Maximum injected flit rate = 0.018 (at node 136)
Minimum accepted flit rate = 0.004 (at node 216)
Average accepted flit rate = 0.0100833
Maximum accepted flit rate = 0.018 (at node 17)
Average injected packet length = 1
Average accepted packet length = 1
Total in-flight flits = 32 (32 measured)
latency change    = 0.0012912
throughput change = 0.015625
1
Class 0:
Minimum packet latency = 5
Average packet latency = 10.2644
Maximum packet latency = 12
Minimum network latency = 5
Average network latency = 10.2644
Maximum network latency = 12
Slowest packet = 4013
Minimum flit latency = 5
Average flit latency = 10.2673
Maximum flit latency = 12
Slowest flit = 4013
Minimum fragmentation = 0
Average fragmentation = 0
Maximum fragmentation = 0
Minimum injected packet rate = 0.0045 (at node 144)
Average injected packet rate = 0.0100254
Maximum injected packet rate = 0.016 (at node 136)
Minimum accepted packet rate = 0.0045 (at node 9)
Average accepted packet rate = 0.0100332
Maximum accepted packet rate = 0.016 (at node 17)
Minimum injected flit rate = 0.0045 (at node 144)
Average injected flit rate = 0.0100254
Maximum injected flit rate = 0.016 (at node 136)
Minimum accepted flit rate = 0.0045 (at node 9)
Average accepted flit rate = 0.0100332
Maximum accepted flit rate = 0.016 (at node 17)
Average injected packet length = 1
Average accepted packet length = 1
Total in-flight flits = 24 (24 measured)
latency change    = 0.000418453
throughput change = 0.00499643
Draining all recorded packets ...
Draining remaining packets ...
Time taken is 3525 cycles
====== Traffic class 0 ======
Overall minimum packet latency = 5 (1 samples)
Overall average packet latency = 10.265 (1 samples)
Overall maximum packet latency = 12 (1 samples)
Overall minimum network latency = 5 (1 samples)
Overall average network latency = 10.265 (1 samples)
Overall maximum network latency = 12 (1 samples)
Overall minimum flit latency = 5 (1 samples)
Overall average flit latency = 10.268 (1 samples)
Overall maximum flit latency = 12 (1 samples)
Overall minimum fragmentation = 0 (1 samples)
Overall average fragmentation = 0 (1 samples)
Overall maximum fragmentation = 0 (1 samples)
Overall minimum injected packet rate = 0.0045 (1 samples)
Overall average injected packet rate = 0.0100254 (1 samples)
Overall maximum injected packet rate = 0.016 (1 samples)
Overall minimum accepted packet rate = 0.0045 (1 samples)
Overall average accepted packet rate = 0.0100332 (1 samples)
Overall maximum accepted packet rate = 0.016 (1 samples)
Overall minimum injected flit rate = 0.0045 (1 samples)
Overall average injected flit rate = 0.0100254 (1 samples)
Overall maximum injected flit rate = 0.016 (1 samples)
Overall minimum accepted flit rate = 0.0045 (1 samples)
Overall average accepted flit rate = 0.0100332 (1 samples)
Overall maximum accepted flit rate = 0.016 (1 samples)
Overall average injected packet size = 1 (1 samples)
Overall average accepted packet size = 1 (1 samples)
Overall average hops = 2.75317 (1 samples)
Total run time 1.64019
