BEGIN Configuration File: ./FBF-3.conf
injection_rate = 0.5;
traffic = asymmetric;
routing_function = adaptive_xyyx;
vc_buf_size = 16;
topology = flatfly;
use_noc_latency = 0;
hold_switch_for_packet=0;

c = 4;
k = 8;
n = 2;

x  = 8;
y  = 8;
xr = 2;
yr = 2;

packet_size  = 1;
num_vcs      = 2;
vc_allocator = separable_input_first; 
sw_allocator = separable_input_first;

alloc_iters   = 1;
sample_period = 500;

wait_for_tail_credit = 0;
use_read_write       = 0;

credit_delay   = 2;
routing_delay  = 0;
vc_alloc_delay = 1;
sw_alloc_delay = 1;
st_final_delay = 1;

input_speedup     = 1;
output_speedup    = 1;
internal_speedup  = 2.0;

warmup_periods = 3;
sim_count      = 1;

priority = none;
injection_rate_uses_flits=1;

END Configuration File: ./FBF-3.conf
Number of nodes: 256
Number of routers: 64
 Flat Bufferfly 
 k = 8 n = 2 c = 4
 each switch - total radix =  18
 # of switches = 64
 # of channels = 896
 # of nodes ( size of network ) = 256
0
Class 0:
Minimum packet latency = 5
Average packet latency = 11.3574
Maximum packet latency = 82
Minimum network latency = 5
Average network latency = 11.3574
Maximum network latency = 82
Slowest packet = 52153
Minimum flit latency = 5
Average flit latency = 11.3574
Maximum flit latency = 82
Slowest flit = 52153
Minimum fragmentation = 0
Average fragmentation = 0
Maximum fragmentation = 0
Minimum injected packet rate = 0.426 (at node 110)
Average injected packet rate = 0.499609
Maximum injected packet rate = 0.562 (at node 22)
Minimum accepted packet rate = 0.422 (at node 176)
Average accepted packet rate = 0.484719
Maximum accepted packet rate = 0.572 (at node 82)
Minimum injected flit rate = 0.426 (at node 110)
Average injected flit rate = 0.499609
Maximum injected flit rate = 0.562 (at node 22)
Minimum accepted flit rate = 0.422 (at node 176)
Average accepted flit rate = 0.484719
Maximum accepted flit rate = 0.572 (at node 82)
Average injected packet length = 1
Average accepted packet length = 1
Total in-flight flits = 1906 (0 measured)
latency change    = 1
throughput change = 1
0
Class 0:
Minimum packet latency = 5
Average packet latency = 14.4938
Maximum packet latency = 166
Minimum network latency = 5
Average network latency = 14.4258
Maximum network latency = 145
Slowest packet = 75399
Minimum flit latency = 5
Average flit latency = 14.4258
Maximum flit latency = 145
Slowest flit = 75399
Minimum fragmentation = 0
Average fragmentation = 0
Maximum fragmentation = 0
Minimum injected packet rate = 0.45 (at node 173)
Average injected packet rate = 0.499762
Maximum injected packet rate = 0.532 (at node 233)
Minimum accepted packet rate = 0.433 (at node 128)
Average accepted packet rate = 0.489766
Maximum accepted packet rate = 0.543 (at node 189)
Minimum injected flit rate = 0.45 (at node 173)
Average injected flit rate = 0.499762
Maximum injected flit rate = 0.532 (at node 233)
Minimum accepted flit rate = 0.433 (at node 128)
Average accepted flit rate = 0.489766
Maximum accepted flit rate = 0.543 (at node 189)
Average injected packet length = 1
Average accepted packet length = 1
Total in-flight flits = 2563 (0 measured)
latency change    = 0.216395
throughput change = 0.0103047
0
Class 0:
Minimum packet latency = 5
Average packet latency = 21.8294
Maximum packet latency = 187
Minimum network latency = 5
Average network latency = 21.4452
Maximum network latency = 145
Slowest packet = 114886
Minimum flit latency = 5
Average flit latency = 21.4452
Maximum flit latency = 145
Slowest flit = 127735
Minimum fragmentation = 0
Average fragmentation = 0
Maximum fragmentation = 0
Minimum injected packet rate = 0.448 (at node 120)
Average injected packet rate = 0.499758
Maximum injected packet rate = 0.574 (at node 71)
Minimum accepted packet rate = 0.396 (at node 223)
Average accepted packet rate = 0.495906
Maximum accepted packet rate = 0.586 (at node 8)
Minimum injected flit rate = 0.448 (at node 120)
Average injected flit rate = 0.499758
Maximum injected flit rate = 0.574 (at node 71)
Minimum accepted flit rate = 0.396 (at node 223)
Average accepted flit rate = 0.495906
Maximum accepted flit rate = 0.586 (at node 8)
Average injected packet length = 1
Average accepted packet length = 1
Total in-flight flits = 3057 (0 measured)
latency change    = 0.33604
throughput change = 0.0123826
Warmed up ...Time used is 1500 cycles
1
Class 0:
Minimum packet latency = 5
Average packet latency = 25.6274
Maximum packet latency = 218
Minimum network latency = 5
Average network latency = 24.8621
Maximum network latency = 177
Slowest packet = 192001
Minimum flit latency = 5
Average flit latency = 25.793
Maximum flit latency = 177
Slowest flit = 210613
Minimum fragmentation = 0
Average fragmentation = 0
Maximum fragmentation = 0
Minimum injected packet rate = 0.438 (at node 235)
Average injected packet rate = 0.500938
Maximum injected packet rate = 0.576 (at node 35)
Minimum accepted packet rate = 0.404 (at node 110)
Average accepted packet rate = 0.498422
Maximum accepted packet rate = 0.612 (at node 145)
Minimum injected flit rate = 0.438 (at node 235)
Average injected flit rate = 0.500938
Maximum injected flit rate = 0.576 (at node 35)
Minimum accepted flit rate = 0.404 (at node 110)
Average accepted flit rate = 0.498422
Maximum accepted flit rate = 0.612 (at node 145)
Average injected packet length = 1
Average accepted packet length = 1
Total in-flight flits = 3380 (3380 measured)
latency change    = 0.1482
throughput change = 0.00504718
1
Class 0:
Minimum packet latency = 5
Average packet latency = 26.7609
Maximum packet latency = 242
Minimum network latency = 5
Average network latency = 25.7769
Maximum network latency = 177
Slowest packet = 192001
Minimum flit latency = 5
Average flit latency = 26.2209
Maximum flit latency = 177
Slowest flit = 210613
Minimum fragmentation = 0
Average fragmentation = 0
Maximum fragmentation = 0
Minimum injected packet rate = 0.452 (at node 201)
Average injected packet rate = 0.500023
Maximum injected packet rate = 0.546 (at node 195)
Minimum accepted packet rate = 0.435 (at node 50)
Average accepted packet rate = 0.497922
Maximum accepted packet rate = 0.578 (at node 145)
Minimum injected flit rate = 0.452 (at node 201)
Average injected flit rate = 0.500023
Maximum injected flit rate = 0.546 (at node 195)
Minimum accepted flit rate = 0.435 (at node 50)
Average accepted flit rate = 0.497922
Maximum accepted flit rate = 0.578 (at node 145)
Average injected packet length = 1
Average accepted packet length = 1
Total in-flight flits = 3597 (3597 measured)
latency change    = 0.0423594
throughput change = 0.00100417
1
Class 0:
Minimum packet latency = 5
Average packet latency = 28.151
Maximum packet latency = 243
Minimum network latency = 5
Average network latency = 26.6675
Maximum network latency = 177
Slowest packet = 192001
Minimum flit latency = 5
Average flit latency = 26.9491
Maximum flit latency = 177
Slowest flit = 210613
Minimum fragmentation = 0
Average fragmentation = 0
Maximum fragmentation = 0
Minimum injected packet rate = 0.454667 (at node 201)
Average injected packet rate = 0.499964
Maximum injected packet rate = 0.54 (at node 35)
Minimum accepted packet rate = 0.451333 (at node 201)
Average accepted packet rate = 0.498177
Maximum accepted packet rate = 0.555333 (at node 145)
Minimum injected flit rate = 0.454667 (at node 201)
Average injected flit rate = 0.499964
Maximum injected flit rate = 0.54 (at node 35)
Minimum accepted flit rate = 0.451333 (at node 201)
Average accepted flit rate = 0.498177
Maximum accepted flit rate = 0.555333 (at node 145)
Average injected packet length = 1
Average accepted packet length = 1
Total in-flight flits = 3749 (3749 measured)
latency change    = 0.0493786
throughput change = 0.000512284
1
Class 0:
Minimum packet latency = 5
Average packet latency = 29.8576
Maximum packet latency = 243
Minimum network latency = 5
Average network latency = 27.934
Maximum network latency = 177
Slowest packet = 192001
Minimum flit latency = 5
Average flit latency = 28.1303
Maximum flit latency = 177
Slowest flit = 210613
Minimum fragmentation = 0
Average fragmentation = 0
Maximum fragmentation = 0
Minimum injected packet rate = 0.467 (at node 201)
Average injected packet rate = 0.500025
Maximum injected packet rate = 0.5295 (at node 133)
Minimum accepted packet rate = 0.457 (at node 201)
Average accepted packet rate = 0.497412
Maximum accepted packet rate = 0.5375 (at node 145)
Minimum injected flit rate = 0.467 (at node 201)
Average injected flit rate = 0.500025
Maximum injected flit rate = 0.5295 (at node 133)
Minimum accepted flit rate = 0.457 (at node 201)
Average accepted flit rate = 0.497412
Maximum accepted flit rate = 0.5375 (at node 145)
Average injected packet length = 1
Average accepted packet length = 1
Total in-flight flits = 4410 (4410 measured)
latency change    = 0.0571581
throughput change = 0.00153791
1
Class 0:
Minimum packet latency = 5
Average packet latency = 31.6609
Maximum packet latency = 243
Minimum network latency = 5
Average network latency = 29.2256
Maximum network latency = 177
Slowest packet = 192001
Minimum flit latency = 5
Average flit latency = 29.3702
Maximum flit latency = 177
Slowest flit = 210613
Minimum fragmentation = 0
Average fragmentation = 0
Maximum fragmentation = 0
Minimum injected packet rate = 0.4688 (at node 201)
Average injected packet rate = 0.49983
Maximum injected packet rate = 0.5264 (at node 195)
Minimum accepted packet rate = 0.4628 (at node 240)
Average accepted packet rate = 0.497772
Maximum accepted packet rate = 0.5344 (at node 72)
Minimum injected flit rate = 0.4688 (at node 201)
Average injected flit rate = 0.49983
Maximum injected flit rate = 0.5264 (at node 195)
Minimum accepted flit rate = 0.4628 (at node 240)
Average accepted flit rate = 0.497772
Maximum accepted flit rate = 0.5344 (at node 72)
Average injected packet length = 1
Average accepted packet length = 1
Total in-flight flits = 4388 (4388 measured)
latency change    = 0.0569582
throughput change = 0.000722752
1
Class 0:
Minimum packet latency = 5
Average packet latency = 33.0898
Maximum packet latency = 270
Minimum network latency = 5
Average network latency = 30.2557
Maximum network latency = 177
Slowest packet = 192001
Minimum flit latency = 5
Average flit latency = 30.368
Maximum flit latency = 177
Slowest flit = 210613
Minimum fragmentation = 0
Average fragmentation = 0
Maximum fragmentation = 0
Minimum injected packet rate = 0.473333 (at node 201)
Average injected packet rate = 0.499478
Maximum injected packet rate = 0.526333 (at node 195)
Minimum accepted packet rate = 0.467 (at node 32)
Average accepted packet rate = 0.497466
Maximum accepted packet rate = 0.531 (at node 72)
Minimum injected flit rate = 0.473333 (at node 201)
Average injected flit rate = 0.499478
Maximum injected flit rate = 0.526333 (at node 195)
Minimum accepted flit rate = 0.467 (at node 32)
Average accepted flit rate = 0.497466
Maximum accepted flit rate = 0.531 (at node 72)
Average injected packet length = 1
Average accepted packet length = 1
Total in-flight flits = 4610 (4610 measured)
latency change    = 0.0431812
throughput change = 0.000614573
1
Class 0:
Minimum packet latency = 5
Average packet latency = 34.4682
Maximum packet latency = 294
Minimum network latency = 5
Average network latency = 31.1954
Maximum network latency = 177
Slowest packet = 192001
Minimum flit latency = 5
Average flit latency = 31.2852
Maximum flit latency = 177
Slowest flit = 210613
Minimum fragmentation = 0
Average fragmentation = 0
Maximum fragmentation = 0
Minimum injected packet rate = 0.475714 (at node 201)
Average injected packet rate = 0.499238
Maximum injected packet rate = 0.520286 (at node 195)
Minimum accepted packet rate = 0.469714 (at node 32)
Average accepted packet rate = 0.497334
Maximum accepted packet rate = 0.532857 (at node 72)
Minimum injected flit rate = 0.475714 (at node 201)
Average injected flit rate = 0.499238
Maximum injected flit rate = 0.520286 (at node 195)
Minimum accepted flit rate = 0.469714 (at node 32)
Average accepted flit rate = 0.497334
Maximum accepted flit rate = 0.532857 (at node 72)
Average injected packet length = 1
Average accepted packet length = 1
Total in-flight flits = 4773 (4773 measured)
latency change    = 0.0399903
throughput change = 0.000266301
Draining all recorded packets ...
Draining remaining packets ...
Time taken is 5439 cycles
====== Traffic class 0 ======
Overall minimum packet latency = 5 (1 samples)
Overall average packet latency = 35.1335 (1 samples)
Overall maximum packet latency = 363 (1 samples)
Overall minimum network latency = 5 (1 samples)
Overall average network latency = 31.6031 (1 samples)
Overall maximum network latency = 177 (1 samples)
Overall minimum flit latency = 5 (1 samples)
Overall average flit latency = 32.0684 (1 samples)
Overall maximum flit latency = 177 (1 samples)
Overall minimum fragmentation = 0 (1 samples)
Overall average fragmentation = 0 (1 samples)
Overall maximum fragmentation = 0 (1 samples)
Overall minimum injected packet rate = 0.475714 (1 samples)
Overall average injected packet rate = 0.499238 (1 samples)
Overall maximum injected packet rate = 0.520286 (1 samples)
Overall minimum accepted packet rate = 0.469714 (1 samples)
Overall average accepted packet rate = 0.497334 (1 samples)
Overall maximum accepted packet rate = 0.532857 (1 samples)
Overall minimum injected flit rate = 0.475714 (1 samples)
Overall average injected flit rate = 0.499238 (1 samples)
Overall maximum injected flit rate = 0.520286 (1 samples)
Overall minimum accepted flit rate = 0.469714 (1 samples)
Overall average accepted flit rate = 0.497334 (1 samples)
Overall maximum accepted flit rate = 0.532857 (1 samples)
Overall average injected packet size = 1 (1 samples)
Overall average accepted packet size = 1 (1 samples)
Overall average hops = 1.49936 (1 samples)
Total run time 16.4119
