BEGIN Configuration File: ./FBF-3.conf
injection_rate = 0.4;
traffic = bitrev;
routing_function = xyyx;
vc_buf_size = 16;
topology = flatfly;
use_noc_latency = 0;
hold_switch_for_packet=0;

c = 4;
k = 8;
n = 2;

x  = 8;
y  = 8;
xr = 2;
yr = 2;

packet_size  = 1;
num_vcs      = 2;
vc_allocator = separable_input_first; 
sw_allocator = separable_input_first;

alloc_iters   = 1;
sample_period = 500;

wait_for_tail_credit = 0;
use_read_write       = 0;

credit_delay   = 2;
routing_delay  = 0;
vc_alloc_delay = 1;
sw_alloc_delay = 1;
st_final_delay = 1;

input_speedup     = 1;
output_speedup    = 1;
internal_speedup  = 2.0;

warmup_periods = 3;
sim_count      = 1;

priority = none;
injection_rate_uses_flits=1;

END Configuration File: ./FBF-3.conf
Number of nodes: 256
Number of routers: 64
 Flat Bufferfly 
 k = 8 n = 2 c = 4
 each switch - total radix =  18
 # of switches = 64
 # of channels = 896
 # of nodes ( size of network ) = 256
0
Class 0:
Minimum packet latency = 5
Average packet latency = 10.8847
Maximum packet latency = 25
Minimum network latency = 5
Average network latency = 10.8847
Maximum network latency = 25
Slowest packet = 6601
Minimum flit latency = 5
Average flit latency = 10.8847
Maximum flit latency = 25
Slowest flit = 6601
Minimum fragmentation = 0
Average fragmentation = 0
Maximum fragmentation = 0
Minimum injected packet rate = 0.334 (at node 172)
Average injected packet rate = 0.398383
Maximum injected packet rate = 0.452 (at node 149)
Minimum accepted packet rate = 0.324 (at node 53)
Average accepted packet rate = 0.389727
Maximum accepted packet rate = 0.438 (at node 82)
Minimum injected flit rate = 0.334 (at node 172)
Average injected flit rate = 0.398383
Maximum injected flit rate = 0.452 (at node 149)
Minimum accepted flit rate = 0.324 (at node 53)
Average accepted flit rate = 0.389727
Maximum accepted flit rate = 0.438 (at node 82)
Average injected packet length = 1
Average accepted packet length = 1
Total in-flight flits = 1108 (0 measured)
latency change    = 1
throughput change = 1
0
Class 0:
Minimum packet latency = 5
Average packet latency = 10.8988
Maximum packet latency = 25
Minimum network latency = 5
Average network latency = 10.8988
Maximum network latency = 25
Slowest packet = 6601
Minimum flit latency = 5
Average flit latency = 10.8988
Maximum flit latency = 25
Slowest flit = 6601
Minimum fragmentation = 0
Average fragmentation = 0
Maximum fragmentation = 0
Minimum injected packet rate = 0.363 (at node 53)
Average injected packet rate = 0.399004
Maximum injected packet rate = 0.439 (at node 74)
Minimum accepted packet rate = 0.354 (at node 172)
Average accepted packet rate = 0.394418
Maximum accepted packet rate = 0.436 (at node 189)
Minimum injected flit rate = 0.363 (at node 53)
Average injected flit rate = 0.399004
Maximum injected flit rate = 0.439 (at node 74)
Minimum accepted flit rate = 0.354 (at node 172)
Average accepted flit rate = 0.394418
Maximum accepted flit rate = 0.436 (at node 189)
Average injected packet length = 1
Average accepted packet length = 1
Total in-flight flits = 1174 (0 measured)
latency change    = 0.00129449
throughput change = 0.0118945
0
Class 0:
Minimum packet latency = 5
Average packet latency = 10.9346
Maximum packet latency = 27
Minimum network latency = 5
Average network latency = 10.9346
Maximum network latency = 27
Slowest packet = 136208
Minimum flit latency = 5
Average flit latency = 10.9346
Maximum flit latency = 27
Slowest flit = 136208
Minimum fragmentation = 0
Average fragmentation = 0
Maximum fragmentation = 0
Minimum injected packet rate = 0.34 (at node 186)
Average injected packet rate = 0.399008
Maximum injected packet rate = 0.46 (at node 51)
Minimum accepted packet rate = 0.338 (at node 93)
Average accepted packet rate = 0.399773
Maximum accepted packet rate = 0.456 (at node 204)
Minimum injected flit rate = 0.34 (at node 186)
Average injected flit rate = 0.399008
Maximum injected flit rate = 0.46 (at node 51)
Minimum accepted flit rate = 0.338 (at node 93)
Average accepted flit rate = 0.399773
Maximum accepted flit rate = 0.456 (at node 204)
Average injected packet length = 1
Average accepted packet length = 1
Total in-flight flits = 1076 (0 measured)
latency change    = 0.00327665
throughput change = 0.0133963
Warmed up ...Time used is 1500 cycles
1
Class 0:
Minimum packet latency = 5
Average packet latency = 10.9417
Maximum packet latency = 26
Minimum network latency = 5
Average network latency = 10.9417
Maximum network latency = 26
Slowest packet = 186359
Minimum flit latency = 5
Average flit latency = 10.9498
Maximum flit latency = 26
Slowest flit = 186359
Minimum fragmentation = 0
Average fragmentation = 0
Maximum fragmentation = 0
Minimum injected packet rate = 0.332 (at node 233)
Average injected packet rate = 0.401258
Maximum injected packet rate = 0.464 (at node 239)
Minimum accepted packet rate = 0.338 (at node 151)
Average accepted packet rate = 0.400617
Maximum accepted packet rate = 0.45 (at node 50)
Minimum injected flit rate = 0.332 (at node 233)
Average injected flit rate = 0.401258
Maximum injected flit rate = 0.464 (at node 239)
Minimum accepted flit rate = 0.338 (at node 151)
Average accepted flit rate = 0.400617
Maximum accepted flit rate = 0.45 (at node 50)
Average injected packet length = 1
Average accepted packet length = 1
Total in-flight flits = 1158 (1158 measured)
latency change    = 0.000645699
throughput change = 0.00210613
1
Class 0:
Minimum packet latency = 5
Average packet latency = 10.9449
Maximum packet latency = 29
Minimum network latency = 5
Average network latency = 10.9449
Maximum network latency = 29
Slowest packet = 229906
Minimum flit latency = 5
Average flit latency = 10.9489
Maximum flit latency = 29
Slowest flit = 229906
Minimum fragmentation = 0
Average fragmentation = 0
Maximum fragmentation = 0
Minimum injected packet rate = 0.367 (at node 171)
Average injected packet rate = 0.400414
Maximum injected packet rate = 0.437 (at node 220)
Minimum accepted packet rate = 0.366 (at node 63)
Average accepted packet rate = 0.400367
Maximum accepted packet rate = 0.438 (at node 206)
Minimum injected flit rate = 0.367 (at node 171)
Average injected flit rate = 0.400414
Maximum injected flit rate = 0.437 (at node 220)
Minimum accepted flit rate = 0.366 (at node 63)
Average accepted flit rate = 0.400367
Maximum accepted flit rate = 0.438 (at node 206)
Average injected packet length = 1
Average accepted packet length = 1
Total in-flight flits = 1088 (1088 measured)
latency change    = 0.000295532
throughput change = 0.000624427
1
Class 0:
Minimum packet latency = 5
Average packet latency = 10.9471
Maximum packet latency = 29
Minimum network latency = 5
Average network latency = 10.9471
Maximum network latency = 29
Slowest packet = 229906
Minimum flit latency = 5
Average flit latency = 10.9498
Maximum flit latency = 29
Slowest flit = 229906
Minimum fragmentation = 0
Average fragmentation = 0
Maximum fragmentation = 0
Minimum injected packet rate = 0.364 (at node 252)
Average injected packet rate = 0.400297
Maximum injected packet rate = 0.432 (at node 142)
Minimum accepted packet rate = 0.362667 (at node 63)
Average accepted packet rate = 0.400117
Maximum accepted packet rate = 0.434667 (at node 206)
Minimum injected flit rate = 0.364 (at node 252)
Average injected flit rate = 0.400297
Maximum injected flit rate = 0.432 (at node 142)
Minimum accepted flit rate = 0.362667 (at node 63)
Average accepted flit rate = 0.400117
Maximum accepted flit rate = 0.434667 (at node 206)
Average injected packet length = 1
Average accepted packet length = 1
Total in-flight flits = 1145 (1145 measured)
latency change    = 0.000201689
throughput change = 0.000624817
Draining all recorded packets ...
Draining remaining packets ...
Time taken is 3036 cycles
====== Traffic class 0 ======
Overall minimum packet latency = 5 (1 samples)
Overall average packet latency = 10.9509 (1 samples)
Overall maximum packet latency = 29 (1 samples)
Overall minimum network latency = 5 (1 samples)
Overall average network latency = 10.9509 (1 samples)
Overall maximum network latency = 29 (1 samples)
Overall minimum flit latency = 5 (1 samples)
Overall average flit latency = 10.9543 (1 samples)
Overall maximum flit latency = 29 (1 samples)
Overall minimum fragmentation = 0 (1 samples)
Overall average fragmentation = 0 (1 samples)
Overall maximum fragmentation = 0 (1 samples)
Overall minimum injected packet rate = 0.364 (1 samples)
Overall average injected packet rate = 0.400297 (1 samples)
Overall maximum injected packet rate = 0.432 (1 samples)
Overall minimum accepted packet rate = 0.362667 (1 samples)
Overall average accepted packet rate = 0.400117 (1 samples)
Overall maximum accepted packet rate = 0.434667 (1 samples)
Overall minimum injected flit rate = 0.364 (1 samples)
Overall average injected flit rate = 0.400297 (1 samples)
Overall maximum injected flit rate = 0.432 (1 samples)
Overall minimum accepted flit rate = 0.362667 (1 samples)
Overall average accepted flit rate = 0.400117 (1 samples)
Overall maximum accepted flit rate = 0.434667 (1 samples)
Overall average injected packet size = 1 (1 samples)
Overall average accepted packet size = 1 (1 samples)
Overall average hops = 2.7515 (1 samples)
Total run time 9.89266
