BEGIN Configuration File: ./FBF-3.conf
injection_rate = 0.8;
traffic = bitrev;
routing_function = adaptive_xyyx;
vc_buf_size = 16;
topology = flatfly;
use_noc_latency = 0;
hold_switch_for_packet=0;

c = 4;
k = 8;
n = 2;

x  = 8;
y  = 8;
xr = 2;
yr = 2;

packet_size  = 1;
num_vcs      = 2;
vc_allocator = separable_input_first; 
sw_allocator = separable_input_first;

alloc_iters   = 1;
sample_period = 500;

wait_for_tail_credit = 0;
use_read_write       = 0;

credit_delay   = 2;
routing_delay  = 0;
vc_alloc_delay = 1;
sw_alloc_delay = 1;
st_final_delay = 1;

input_speedup     = 1;
output_speedup    = 1;
internal_speedup  = 2.0;

warmup_periods = 3;
sim_count      = 1;

priority = none;
injection_rate_uses_flits=1;

END Configuration File: ./FBF-3.conf
Number of nodes: 256
Number of routers: 64
 Flat Bufferfly 
 k = 8 n = 2 c = 4
 each switch - total radix =  18
 # of switches = 64
 # of channels = 896
 # of nodes ( size of network ) = 256
0
Class 0:
Minimum packet latency = 5
Average packet latency = 53.9249
Maximum packet latency = 327
Minimum network latency = 5
Average network latency = 44.9454
Maximum network latency = 204
Slowest packet = 16979
Minimum flit latency = 5
Average flit latency = 44.9454
Maximum flit latency = 204
Slowest flit = 42838
Minimum fragmentation = 0
Average fragmentation = 0
Maximum fragmentation = 0
Minimum injected packet rate = 0.372 (at node 172)
Average injected packet rate = 0.68925
Maximum injected packet rate = 0.842 (at node 69)
Minimum accepted packet rate = 0.284 (at node 53)
Average accepted packet rate = 0.615578
Maximum accepted packet rate = 0.818 (at node 255)
Minimum injected flit rate = 0.372 (at node 172)
Average injected flit rate = 0.68925
Maximum injected flit rate = 0.842 (at node 69)
Minimum accepted flit rate = 0.284 (at node 53)
Average accepted flit rate = 0.615578
Maximum accepted flit rate = 0.818 (at node 255)
Average injected packet length = 1
Average accepted packet length = 1
Total in-flight flits = 9528 (0 measured)
latency change    = 1
throughput change = 1
0
Class 0:
Minimum packet latency = 5
Average packet latency = 102.909
Maximum packet latency = 685
Minimum network latency = 5
Average network latency = 53.9269
Maximum network latency = 209
Slowest packet = 16979
Minimum flit latency = 5
Average flit latency = 53.9269
Maximum flit latency = 209
Slowest flit = 80861
Minimum fragmentation = 0
Average fragmentation = 0
Maximum fragmentation = 0
Minimum injected packet rate = 0.299 (at node 172)
Average injected packet rate = 0.636336
Maximum injected packet rate = 0.822 (at node 69)
Minimum accepted packet rate = 0.255 (at node 53)
Average accepted packet rate = 0.599246
Maximum accepted packet rate = 0.815 (at node 90)
Minimum injected flit rate = 0.299 (at node 172)
Average injected flit rate = 0.636336
Maximum injected flit rate = 0.822 (at node 69)
Minimum accepted flit rate = 0.255 (at node 53)
Average accepted flit rate = 0.599246
Maximum accepted flit rate = 0.815 (at node 90)
Average injected packet length = 1
Average accepted packet length = 1
Total in-flight flits = 9595 (0 measured)
latency change    = 0.475994
throughput change = 0.0272543
0
Class 0:
Minimum packet latency = 5
Average packet latency = 277.598
Maximum packet latency = 1032
Minimum network latency = 5
Average network latency = 65.1026
Maximum network latency = 211
Slowest packet = 154298
Minimum flit latency = 5
Average flit latency = 65.1026
Maximum flit latency = 211
Slowest flit = 182949
Minimum fragmentation = 0
Average fragmentation = 0
Maximum fragmentation = 0
Minimum injected packet rate = 0.226 (at node 83)
Average injected packet rate = 0.567906
Maximum injected packet rate = 0.848 (at node 50)
Minimum accepted packet rate = 0.224 (at node 202)
Average accepted packet rate = 0.567836
Maximum accepted packet rate = 0.876 (at node 76)
Minimum injected flit rate = 0.226 (at node 83)
Average injected flit rate = 0.567906
Maximum injected flit rate = 0.848 (at node 50)
Minimum accepted flit rate = 0.224 (at node 202)
Average accepted flit rate = 0.567836
Maximum accepted flit rate = 0.876 (at node 76)
Average injected packet length = 1
Average accepted packet length = 1
Total in-flight flits = 9609 (0 measured)
latency change    = 0.629289
throughput change = 0.0553155
Warmed up ...Time used is 1500 cycles
1
Class 0:
Minimum packet latency = 5
Average packet latency = 405.877
Maximum packet latency = 1380
Minimum network latency = 5
Average network latency = 66.1628
Maximum network latency = 219
Slowest packet = 235842
Minimum flit latency = 5
Average flit latency = 68.331
Maximum flit latency = 219
Slowest flit = 239360
Minimum fragmentation = 0
Average fragmentation = 0
Maximum fragmentation = 0
Minimum injected packet rate = 0.228 (at node 136)
Average injected packet rate = 0.543875
Maximum injected packet rate = 0.838 (at node 36)
Minimum accepted packet rate = 0.228 (at node 17)
Average accepted packet rate = 0.543422
Maximum accepted packet rate = 0.84 (at node 36)
Minimum injected flit rate = 0.228 (at node 136)
Average injected flit rate = 0.543875
Maximum injected flit rate = 0.838 (at node 36)
Minimum accepted flit rate = 0.228 (at node 17)
Average accepted flit rate = 0.543422
Maximum accepted flit rate = 0.84 (at node 36)
Average injected packet length = 1
Average accepted packet length = 1
Total in-flight flits = 9677 (9677 measured)
latency change    = 0.316054
throughput change = 0.0449265
1
Class 0:
Minimum packet latency = 5
Average packet latency = 487.268
Maximum packet latency = 1726
Minimum network latency = 5
Average network latency = 67.5858
Maximum network latency = 219
Slowest packet = 235842
Minimum flit latency = 5
Average flit latency = 68.5756
Maximum flit latency = 219
Slowest flit = 239360
Minimum fragmentation = 0
Average fragmentation = 0
Maximum fragmentation = 0
Minimum injected packet rate = 0.231 (at node 9)
Average injected packet rate = 0.541023
Maximum injected packet rate = 0.822 (at node 23)
Minimum accepted packet rate = 0.231 (at node 17)
Average accepted packet rate = 0.541254
Maximum accepted packet rate = 0.822 (at node 219)
Minimum injected flit rate = 0.231 (at node 9)
Average injected flit rate = 0.541023
Maximum injected flit rate = 0.822 (at node 23)
Minimum accepted flit rate = 0.231 (at node 17)
Average accepted flit rate = 0.541254
Maximum accepted flit rate = 0.822 (at node 219)
Average injected packet length = 1
Average accepted packet length = 1
Total in-flight flits = 9565 (9565 measured)
latency change    = 0.167035
throughput change = 0.00400546
Average latency for class 0 exceeded 500 cycles. Aborting simulation.
Too many sample periods needed to converge
Simulation unstable, ending ...
Total run time 13.4033
