BEGIN Configuration File: ./FBF-3.conf
injection_rate = 0.8;
traffic = bitrev;
routing_function = valiant;
vc_buf_size = 16;
topology = flatfly;
use_noc_latency = 0;
hold_switch_for_packet=0;

c = 4;
k = 8;
n = 2;

x  = 8;
y  = 8;
xr = 2;
yr = 2;

packet_size  = 1;
num_vcs      = 2;
vc_allocator = separable_input_first; 
sw_allocator = separable_input_first;

alloc_iters   = 1;
sample_period = 500;

wait_for_tail_credit = 0;
use_read_write       = 0;

credit_delay   = 2;
routing_delay  = 0;
vc_alloc_delay = 1;
sw_alloc_delay = 1;
st_final_delay = 1;

input_speedup     = 1;
output_speedup    = 1;
internal_speedup  = 2.0;

warmup_periods = 3;
sim_count      = 1;

priority = none;
injection_rate_uses_flits=1;

END Configuration File: ./FBF-3.conf
Number of nodes: 256
Number of routers: 64
 Flat Bufferfly 
 k = 8 n = 2 c = 4
 each switch - total radix =  18
 # of switches = 64
 # of channels = 896
 # of nodes ( size of network ) = 256
0
Class 0:
Minimum packet latency = 5
Average packet latency = 20.72
Maximum packet latency = 56
Minimum network latency = 5
Average network latency = 20.72
Maximum network latency = 56
Slowest packet = 88628
Minimum flit latency = 5
Average flit latency = 20.72
Maximum flit latency = 56
Slowest flit = 88628
Minimum fragmentation = 0
Average fragmentation = 0
Maximum fragmentation = 0
Minimum injected packet rate = 0.738 (at node 2)
Average injected packet rate = 0.799844
Maximum injected packet rate = 0.848 (at node 45)
Minimum accepted packet rate = 0.706 (at node 64)
Average accepted packet rate = 0.766531
Maximum accepted packet rate = 0.818 (at node 66)
Minimum injected flit rate = 0.738 (at node 2)
Average injected flit rate = 0.799844
Maximum injected flit rate = 0.848 (at node 45)
Minimum accepted flit rate = 0.706 (at node 64)
Average accepted flit rate = 0.766531
Maximum accepted flit rate = 0.818 (at node 66)
Average injected packet length = 1
Average accepted packet length = 1
Total in-flight flits = 4264 (0 measured)
latency change    = 1
throughput change = 1
0
Class 0:
Minimum packet latency = 5
Average packet latency = 20.7975
Maximum packet latency = 57
Minimum network latency = 5
Average network latency = 20.7975
Maximum network latency = 57
Slowest packet = 112281
Minimum flit latency = 5
Average flit latency = 20.7975
Maximum flit latency = 57
Slowest flit = 112281
Minimum fragmentation = 0
Average fragmentation = 0
Maximum fragmentation = 0
Minimum injected packet rate = 0.761 (at node 2)
Average injected packet rate = 0.79868
Maximum injected packet rate = 0.832 (at node 10)
Minimum accepted packet rate = 0.744 (at node 64)
Average accepted packet rate = 0.78223
Maximum accepted packet rate = 0.816 (at node 80)
Minimum injected flit rate = 0.761 (at node 2)
Average injected flit rate = 0.79868
Maximum injected flit rate = 0.832 (at node 10)
Minimum accepted flit rate = 0.744 (at node 64)
Average accepted flit rate = 0.78223
Maximum accepted flit rate = 0.816 (at node 80)
Average injected packet length = 1
Average accepted packet length = 1
Total in-flight flits = 4211 (0 measured)
latency change    = 0.00372711
throughput change = 0.0200698
0
Class 0:
Minimum packet latency = 5
Average packet latency = 20.986
Maximum packet latency = 57
Minimum network latency = 5
Average network latency = 20.986
Maximum network latency = 57
Slowest packet = 228864
Minimum flit latency = 5
Average flit latency = 20.986
Maximum flit latency = 57
Slowest flit = 228864
Minimum fragmentation = 0
Average fragmentation = 0
Maximum fragmentation = 0
Minimum injected packet rate = 0.74 (at node 171)
Average injected packet rate = 0.799492
Maximum injected packet rate = 0.842 (at node 31)
Minimum accepted packet rate = 0.738 (at node 213)
Average accepted packet rate = 0.799625
Maximum accepted packet rate = 0.842 (at node 19)
Minimum injected flit rate = 0.74 (at node 171)
Average injected flit rate = 0.799492
Maximum injected flit rate = 0.842 (at node 31)
Minimum accepted flit rate = 0.738 (at node 213)
Average accepted flit rate = 0.799625
Maximum accepted flit rate = 0.842 (at node 19)
Average injected packet length = 1
Average accepted packet length = 1
Total in-flight flits = 4194 (0 measured)
latency change    = 0.00898173
throughput change = 0.0217534
Warmed up ...Time used is 1500 cycles
1
Class 0:
Minimum packet latency = 5
Average packet latency = 20.8213
Maximum packet latency = 57
Minimum network latency = 5
Average network latency = 20.8213
Maximum network latency = 57
Slowest packet = 321663
Minimum flit latency = 5
Average flit latency = 20.8981
Maximum flit latency = 57
Slowest flit = 321663
Minimum fragmentation = 0
Average fragmentation = 0
Maximum fragmentation = 0
Minimum injected packet rate = 0.754 (at node 175)
Average injected packet rate = 0.799555
Maximum injected packet rate = 0.838 (at node 52)
Minimum accepted packet rate = 0.748 (at node 245)
Average accepted packet rate = 0.798531
Maximum accepted packet rate = 0.836 (at node 48)
Minimum injected flit rate = 0.754 (at node 175)
Average injected flit rate = 0.799555
Maximum injected flit rate = 0.838 (at node 52)
Minimum accepted flit rate = 0.748 (at node 245)
Average accepted flit rate = 0.798531
Maximum accepted flit rate = 0.836 (at node 48)
Average injected packet length = 1
Average accepted packet length = 1
Total in-flight flits = 4325 (4325 measured)
latency change    = 0.00790827
throughput change = 0.0013697
1
Class 0:
Minimum packet latency = 5
Average packet latency = 20.95
Maximum packet latency = 57
Minimum network latency = 5
Average network latency = 20.95
Maximum network latency = 57
Slowest packet = 321663
Minimum flit latency = 5
Average flit latency = 20.9857
Maximum flit latency = 57
Slowest flit = 321663
Minimum fragmentation = 0
Average fragmentation = 0
Maximum fragmentation = 0
Minimum injected packet rate = 0.767 (at node 181)
Average injected packet rate = 0.799309
Maximum injected packet rate = 0.831 (at node 52)
Minimum accepted packet rate = 0.765 (at node 173)
Average accepted packet rate = 0.799082
Maximum accepted packet rate = 0.832 (at node 15)
Minimum injected flit rate = 0.767 (at node 181)
Average injected flit rate = 0.799309
Maximum injected flit rate = 0.831 (at node 52)
Minimum accepted flit rate = 0.765 (at node 173)
Average accepted flit rate = 0.799082
Maximum accepted flit rate = 0.832 (at node 15)
Average injected packet length = 1
Average accepted packet length = 1
Total in-flight flits = 4252 (4252 measured)
latency change    = 0.00614172
throughput change = 0.000689267
1
Class 0:
Minimum packet latency = 5
Average packet latency = 20.9573
Maximum packet latency = 57
Minimum network latency = 5
Average network latency = 20.9573
Maximum network latency = 57
Slowest packet = 321663
Minimum flit latency = 5
Average flit latency = 20.981
Maximum flit latency = 57
Slowest flit = 321663
Minimum fragmentation = 0
Average fragmentation = 0
Maximum fragmentation = 0
Minimum injected packet rate = 0.774667 (at node 1)
Average injected packet rate = 0.79912
Maximum injected packet rate = 0.826 (at node 60)
Minimum accepted packet rate = 0.772667 (at node 73)
Average accepted packet rate = 0.79887
Maximum accepted packet rate = 0.826 (at node 60)
Minimum injected flit rate = 0.774667 (at node 1)
Average injected flit rate = 0.79912
Maximum injected flit rate = 0.826 (at node 60)
Minimum accepted flit rate = 0.772667 (at node 73)
Average accepted flit rate = 0.79887
Maximum accepted flit rate = 0.826 (at node 60)
Average injected packet length = 1
Average accepted packet length = 1
Total in-flight flits = 4290 (4290 measured)
latency change    = 0.000347776
throughput change = 0.000265675
Draining all recorded packets ...
Draining remaining packets ...
Time taken is 3075 cycles
====== Traffic class 0 ======
Overall minimum packet latency = 5 (1 samples)
Overall average packet latency = 20.9831 (1 samples)
Overall maximum packet latency = 57 (1 samples)
Overall minimum network latency = 5 (1 samples)
Overall average network latency = 20.9831 (1 samples)
Overall maximum network latency = 57 (1 samples)
Overall minimum flit latency = 5 (1 samples)
Overall average flit latency = 20.9957 (1 samples)
Overall maximum flit latency = 57 (1 samples)
Overall minimum fragmentation = 0 (1 samples)
Overall average fragmentation = 0 (1 samples)
Overall maximum fragmentation = 0 (1 samples)
Overall minimum injected packet rate = 0.774667 (1 samples)
Overall average injected packet rate = 0.79912 (1 samples)
Overall maximum injected packet rate = 0.826 (1 samples)
Overall minimum accepted packet rate = 0.772667 (1 samples)
Overall average accepted packet rate = 0.79887 (1 samples)
Overall maximum accepted packet rate = 0.826 (1 samples)
Overall minimum injected flit rate = 0.774667 (1 samples)
Overall average injected flit rate = 0.79912 (1 samples)
Overall maximum injected flit rate = 0.826 (1 samples)
Overall minimum accepted flit rate = 0.772667 (1 samples)
Overall average accepted flit rate = 0.79887 (1 samples)
Overall maximum accepted flit rate = 0.826 (1 samples)
Overall average injected packet size = 1 (1 samples)
Overall average accepted packet size = 1 (1 samples)
Overall average hops = 4.26939 (1 samples)
Total run time 28.8556
