BEGIN Configuration File: ./FBF-3.conf
injection_rate = 0.9;
traffic = uniform;
routing_function = ran_min;
vc_buf_size = 16;
topology = flatfly;
use_noc_latency = 0;
hold_switch_for_packet=0;

c = 4;
k = 8;
n = 2;

x  = 8;
y  = 8;
xr = 2;
yr = 2;

packet_size  = 1;
num_vcs      = 2;
vc_allocator = separable_input_first; 
sw_allocator = separable_input_first;

alloc_iters   = 1;
sample_period = 500;

wait_for_tail_credit = 0;
use_read_write       = 0;

credit_delay   = 2;
routing_delay  = 0;
vc_alloc_delay = 1;
sw_alloc_delay = 1;
st_final_delay = 1;

input_speedup     = 1;
output_speedup    = 1;
internal_speedup  = 2.0;

warmup_periods = 3;
sim_count      = 1;

priority = none;
injection_rate_uses_flits=1;

END Configuration File: ./FBF-3.conf
Number of nodes: 256
Number of routers: 64
 Flat Bufferfly 
 k = 8 n = 2 c = 4
 each switch - total radix =  18
 # of switches = 64
 # of channels = 896
 # of nodes ( size of network ) = 256
0
Class 0:
Minimum packet latency = 5
Average packet latency = 14.9536
Maximum packet latency = 53
Minimum network latency = 5
Average network latency = 14.9536
Maximum network latency = 53
Slowest packet = 49764
Minimum flit latency = 5
Average flit latency = 14.9536
Maximum flit latency = 53
Slowest flit = 49764
Minimum fragmentation = 0
Average fragmentation = 0
Maximum fragmentation = 0
Minimum injected packet rate = 0.858 (at node 46)
Average injected packet rate = 0.900852
Maximum injected packet rate = 0.938 (at node 3)
Minimum accepted packet rate = 0.756 (at node 108)
Average accepted packet rate = 0.872648
Maximum accepted packet rate = 0.974 (at node 186)
Minimum injected flit rate = 0.858 (at node 46)
Average injected flit rate = 0.900852
Maximum injected flit rate = 0.938 (at node 3)
Minimum accepted flit rate = 0.756 (at node 108)
Average accepted flit rate = 0.872648
Maximum accepted flit rate = 0.974 (at node 186)
Average injected packet length = 1
Average accepted packet length = 1
Total in-flight flits = 3610 (0 measured)
latency change    = 1
throughput change = 1
0
Class 0:
Minimum packet latency = 5
Average packet latency = 15.1768
Maximum packet latency = 78
Minimum network latency = 5
Average network latency = 15.1768
Maximum network latency = 78
Slowest packet = 190465
Minimum flit latency = 5
Average flit latency = 15.1768
Maximum flit latency = 78
Slowest flit = 190465
Minimum fragmentation = 0
Average fragmentation = 0
Maximum fragmentation = 0
Minimum injected packet rate = 0.87 (at node 157)
Average injected packet rate = 0.899863
Maximum injected packet rate = 0.922 (at node 88)
Minimum accepted packet rate = 0.819 (at node 110)
Average accepted packet rate = 0.88625
Maximum accepted packet rate = 0.96 (at node 65)
Minimum injected flit rate = 0.87 (at node 157)
Average injected flit rate = 0.899863
Maximum injected flit rate = 0.922 (at node 88)
Minimum accepted flit rate = 0.819 (at node 110)
Average accepted flit rate = 0.88625
Maximum accepted flit rate = 0.96 (at node 65)
Average injected packet length = 1
Average accepted packet length = 1
Total in-flight flits = 3485 (0 measured)
latency change    = 0.0147092
throughput change = 0.0153473
0
Class 0:
Minimum packet latency = 5
Average packet latency = 15.1756
Maximum packet latency = 45
Minimum network latency = 5
Average network latency = 15.1756
Maximum network latency = 45
Slowest packet = 287054
Minimum flit latency = 5
Average flit latency = 15.1756
Maximum flit latency = 45
Slowest flit = 287054
Minimum fragmentation = 0
Average fragmentation = 0
Maximum fragmentation = 0
Minimum injected packet rate = 0.86 (at node 171)
Average injected packet rate = 0.899336
Maximum injected packet rate = 0.934 (at node 189)
Minimum accepted packet rate = 0.756 (at node 21)
Average accepted packet rate = 0.899023
Maximum accepted packet rate = 0.994 (at node 241)
Minimum injected flit rate = 0.86 (at node 171)
Average injected flit rate = 0.899336
Maximum injected flit rate = 0.934 (at node 189)
Minimum accepted flit rate = 0.756 (at node 21)
Average accepted flit rate = 0.899023
Maximum accepted flit rate = 0.994 (at node 241)
Average injected packet length = 1
Average accepted packet length = 1
Total in-flight flits = 3525 (0 measured)
latency change    = 8.11014e-05
throughput change = 0.0142081
Warmed up ...Time used is 1500 cycles
1
Class 0:
Minimum packet latency = 5
Average packet latency = 15.6
Maximum packet latency = 77
Minimum network latency = 5
Average network latency = 15.6
Maximum network latency = 77
Slowest packet = 438491
Minimum flit latency = 5
Average flit latency = 15.6454
Maximum flit latency = 77
Slowest flit = 438491
Minimum fragmentation = 0
Average fragmentation = 0
Maximum fragmentation = 0
Minimum injected packet rate = 0.866 (at node 1)
Average injected packet rate = 0.901258
Maximum injected packet rate = 0.94 (at node 215)
Minimum accepted packet rate = 0.788 (at node 20)
Average accepted packet rate = 0.900445
Maximum accepted packet rate = 0.996 (at node 5)
Minimum injected flit rate = 0.866 (at node 1)
Average injected flit rate = 0.901258
Maximum injected flit rate = 0.94 (at node 215)
Minimum accepted flit rate = 0.788 (at node 20)
Average accepted flit rate = 0.900445
Maximum accepted flit rate = 0.996 (at node 5)
Average injected packet length = 1
Average accepted packet length = 1
Total in-flight flits = 3629 (3629 measured)
latency change    = 0.0272018
throughput change = 0.00157908
1
Class 0:
Minimum packet latency = 5
Average packet latency = 15.5786
Maximum packet latency = 95
Minimum network latency = 5
Average network latency = 15.5786
Maximum network latency = 95
Slowest packet = 459676
Minimum flit latency = 5
Average flit latency = 15.6016
Maximum flit latency = 95
Slowest flit = 459676
Minimum fragmentation = 0
Average fragmentation = 0
Maximum fragmentation = 0
Minimum injected packet rate = 0.876 (at node 128)
Average injected packet rate = 0.900668
Maximum injected packet rate = 0.926 (at node 178)
Minimum accepted packet rate = 0.818 (at node 20)
Average accepted packet rate = 0.900461
Maximum accepted packet rate = 0.982 (at node 5)
Minimum injected flit rate = 0.876 (at node 128)
Average injected flit rate = 0.900668
Maximum injected flit rate = 0.926 (at node 178)
Minimum accepted flit rate = 0.818 (at node 20)
Average accepted flit rate = 0.900461
Maximum accepted flit rate = 0.982 (at node 5)
Average injected packet length = 1
Average accepted packet length = 1
Total in-flight flits = 3578 (3578 measured)
latency change    = 0.00137272
throughput change = 1.73522e-05
1
Class 0:
Minimum packet latency = 5
Average packet latency = 15.5153
Maximum packet latency = 95
Minimum network latency = 5
Average network latency = 15.5153
Maximum network latency = 95
Slowest packet = 459676
Minimum flit latency = 5
Average flit latency = 15.5313
Maximum flit latency = 95
Slowest flit = 459676
Minimum fragmentation = 0
Average fragmentation = 0
Maximum fragmentation = 0
Minimum injected packet rate = 0.88 (at node 1)
Average injected packet rate = 0.900161
Maximum injected packet rate = 0.918 (at node 142)
Minimum accepted packet rate = 0.839333 (at node 20)
Average accepted packet rate = 0.900065
Maximum accepted packet rate = 0.982 (at node 121)
Minimum injected flit rate = 0.88 (at node 1)
Average injected flit rate = 0.900161
Maximum injected flit rate = 0.918 (at node 142)
Minimum accepted flit rate = 0.839333 (at node 20)
Average accepted flit rate = 0.900065
Maximum accepted flit rate = 0.982 (at node 121)
Average injected packet length = 1
Average accepted packet length = 1
Total in-flight flits = 3562 (3562 measured)
latency change    = 0.00407708
throughput change = 0.000439783
Draining all recorded packets ...
Draining remaining packets ...
Time taken is 3087 cycles
====== Traffic class 0 ======
Overall minimum packet latency = 5 (1 samples)
Overall average packet latency = 15.5329 (1 samples)
Overall maximum packet latency = 95 (1 samples)
Overall minimum network latency = 5 (1 samples)
Overall average network latency = 15.5329 (1 samples)
Overall maximum network latency = 95 (1 samples)
Overall minimum flit latency = 5 (1 samples)
Overall average flit latency = 15.5391 (1 samples)
Overall maximum flit latency = 95 (1 samples)
Overall minimum fragmentation = 0 (1 samples)
Overall average fragmentation = 0 (1 samples)
Overall maximum fragmentation = 0 (1 samples)
Overall minimum injected packet rate = 0.88 (1 samples)
Overall average injected packet rate = 0.900161 (1 samples)
Overall maximum injected packet rate = 0.918 (1 samples)
Overall minimum accepted packet rate = 0.839333 (1 samples)
Overall average accepted packet rate = 0.900065 (1 samples)
Overall maximum accepted packet rate = 0.982 (1 samples)
Overall minimum injected flit rate = 0.88 (1 samples)
Overall average injected flit rate = 0.900161 (1 samples)
Overall maximum injected flit rate = 0.918 (1 samples)
Overall minimum accepted flit rate = 0.839333 (1 samples)
Overall average accepted flit rate = 0.900065 (1 samples)
Overall maximum accepted flit rate = 0.982 (1 samples)
Overall average injected packet size = 1 (1 samples)
Overall average accepted packet size = 1 (1 samples)
Overall average hops = 2.75012 (1 samples)
Total run time 23.8203
