BEGIN Configuration File: ./FBF-3.conf
injection_rate = 0.7;
traffic = bitrev;
routing_function = valiant;
vc_buf_size = 16;
topology = flatfly;
use_noc_latency = 0;
hold_switch_for_packet=0;

c = 4;
k = 8;
n = 2;

x  = 8;
y  = 8;
xr = 2;
yr = 2;

packet_size  = 1;
num_vcs      = 2;
vc_allocator = separable_input_first; 
sw_allocator = separable_input_first;

alloc_iters   = 1;
sample_period = 500;

wait_for_tail_credit = 0;
use_read_write       = 0;

credit_delay   = 2;
routing_delay  = 0;
vc_alloc_delay = 1;
sw_alloc_delay = 1;
st_final_delay = 1;

input_speedup     = 1;
output_speedup    = 1;
internal_speedup  = 2.0;

warmup_periods = 3;
sim_count      = 1;

priority = none;
injection_rate_uses_flits=1;

END Configuration File: ./FBF-3.conf
Number of nodes: 256
Number of routers: 64
 Flat Bufferfly 
 k = 8 n = 2 c = 4
 each switch - total radix =  18
 # of switches = 64
 # of channels = 896
 # of nodes ( size of network ) = 256
0
Class 0:
Minimum packet latency = 5
Average packet latency = 18.5119
Maximum packet latency = 41
Minimum network latency = 5
Average network latency = 18.5119
Maximum network latency = 41
Slowest packet = 5577
Minimum flit latency = 5
Average flit latency = 18.5119
Maximum flit latency = 41
Slowest flit = 5577
Minimum fragmentation = 0
Average fragmentation = 0
Maximum fragmentation = 0
Minimum injected packet rate = 0.64 (at node 172)
Average injected packet rate = 0.699727
Maximum injected packet rate = 0.752 (at node 70)
Minimum accepted packet rate = 0.616 (at node 53)
Average accepted packet rate = 0.673852
Maximum accepted packet rate = 0.728 (at node 98)
Minimum injected flit rate = 0.64 (at node 172)
Average injected flit rate = 0.699727
Maximum injected flit rate = 0.752 (at node 70)
Minimum accepted flit rate = 0.616 (at node 53)
Average accepted flit rate = 0.673852
Maximum accepted flit rate = 0.728 (at node 98)
Average injected packet length = 1
Average accepted packet length = 1
Total in-flight flits = 3312 (0 measured)
latency change    = 1
throughput change = 1
0
Class 0:
Minimum packet latency = 5
Average packet latency = 18.5324
Maximum packet latency = 43
Minimum network latency = 5
Average network latency = 18.5324
Maximum network latency = 43
Slowest packet = 119675
Minimum flit latency = 5
Average flit latency = 18.5324
Maximum flit latency = 43
Slowest flit = 119675
Minimum fragmentation = 0
Average fragmentation = 0
Maximum fragmentation = 0
Minimum injected packet rate = 0.652 (at node 172)
Average injected packet rate = 0.699313
Maximum injected packet rate = 0.736 (at node 26)
Minimum accepted packet rate = 0.64 (at node 53)
Average accepted packet rate = 0.686098
Maximum accepted packet rate = 0.72 (at node 88)
Minimum injected flit rate = 0.652 (at node 172)
Average injected flit rate = 0.699313
Maximum injected flit rate = 0.736 (at node 26)
Minimum accepted flit rate = 0.64 (at node 53)
Average accepted flit rate = 0.686098
Maximum accepted flit rate = 0.72 (at node 88)
Average injected packet length = 1
Average accepted packet length = 1
Total in-flight flits = 3383 (0 measured)
latency change    = 0.001107
throughput change = 0.0178489
0
Class 0:
Minimum packet latency = 5
Average packet latency = 18.6352
Maximum packet latency = 47
Minimum network latency = 5
Average network latency = 18.6352
Maximum network latency = 47
Slowest packet = 243935
Minimum flit latency = 5
Average flit latency = 18.6352
Maximum flit latency = 47
Slowest flit = 243935
Minimum fragmentation = 0
Average fragmentation = 0
Maximum fragmentation = 0
Minimum injected packet rate = 0.632 (at node 57)
Average injected packet rate = 0.699133
Maximum injected packet rate = 0.754 (at node 51)
Minimum accepted packet rate = 0.626 (at node 156)
Average accepted packet rate = 0.700031
Maximum accepted packet rate = 0.76 (at node 204)
Minimum injected flit rate = 0.632 (at node 57)
Average injected flit rate = 0.699133
Maximum injected flit rate = 0.754 (at node 51)
Minimum accepted flit rate = 0.626 (at node 156)
Average accepted flit rate = 0.700031
Maximum accepted flit rate = 0.76 (at node 204)
Average injected packet length = 1
Average accepted packet length = 1
Total in-flight flits = 3268 (0 measured)
latency change    = 0.00551956
throughput change = 0.0199042
Warmed up ...Time used is 1500 cycles
1
Class 0:
Minimum packet latency = 5
Average packet latency = 18.5679
Maximum packet latency = 42
Minimum network latency = 5
Average network latency = 18.5679
Maximum network latency = 42
Slowest packet = 279450
Minimum flit latency = 5
Average flit latency = 18.6201
Maximum flit latency = 42
Slowest flit = 268182
Minimum fragmentation = 0
Average fragmentation = 0
Maximum fragmentation = 0
Minimum injected packet rate = 0.652 (at node 194)
Average injected packet rate = 0.699203
Maximum injected packet rate = 0.75 (at node 115)
Minimum accepted packet rate = 0.652 (at node 76)
Average accepted packet rate = 0.698227
Maximum accepted packet rate = 0.746 (at node 99)
Minimum injected flit rate = 0.652 (at node 194)
Average injected flit rate = 0.699203
Maximum injected flit rate = 0.75 (at node 115)
Minimum accepted flit rate = 0.652 (at node 76)
Average accepted flit rate = 0.698227
Maximum accepted flit rate = 0.746 (at node 99)
Average injected packet length = 1
Average accepted packet length = 1
Total in-flight flits = 3393 (3393 measured)
latency change    = 0.0036242
throughput change = 0.00258467
1
Class 0:
Minimum packet latency = 5
Average packet latency = 18.5843
Maximum packet latency = 42
Minimum network latency = 5
Average network latency = 18.5843
Maximum network latency = 42
Slowest packet = 279450
Minimum flit latency = 5
Average flit latency = 18.61
Maximum flit latency = 42
Slowest flit = 268182
Minimum fragmentation = 0
Average fragmentation = 0
Maximum fragmentation = 0
Minimum injected packet rate = 0.663 (at node 39)
Average injected packet rate = 0.698973
Maximum injected packet rate = 0.738 (at node 115)
Minimum accepted packet rate = 0.664 (at node 246)
Average accepted packet rate = 0.698758
Maximum accepted packet rate = 0.741 (at node 206)
Minimum injected flit rate = 0.663 (at node 39)
Average injected flit rate = 0.698973
Maximum injected flit rate = 0.738 (at node 115)
Minimum accepted flit rate = 0.664 (at node 246)
Average accepted flit rate = 0.698758
Maximum accepted flit rate = 0.741 (at node 206)
Average injected packet length = 1
Average accepted packet length = 1
Total in-flight flits = 3323 (3323 measured)
latency change    = 0.000880223
throughput change = 0.000760278
1
Class 0:
Minimum packet latency = 5
Average packet latency = 18.5786
Maximum packet latency = 42
Minimum network latency = 5
Average network latency = 18.5786
Maximum network latency = 42
Slowest packet = 279450
Minimum flit latency = 5
Average flit latency = 18.5958
Maximum flit latency = 42
Slowest flit = 268182
Minimum fragmentation = 0
Average fragmentation = 0
Maximum fragmentation = 0
Minimum injected packet rate = 0.66 (at node 146)
Average injected packet rate = 0.699326
Maximum injected packet rate = 0.736 (at node 149)
Minimum accepted packet rate = 0.661333 (at node 73)
Average accepted packet rate = 0.699044
Maximum accepted packet rate = 0.734667 (at node 169)
Minimum injected flit rate = 0.66 (at node 146)
Average injected flit rate = 0.699326
Maximum injected flit rate = 0.736 (at node 149)
Minimum accepted flit rate = 0.661333 (at node 73)
Average accepted flit rate = 0.699044
Maximum accepted flit rate = 0.734667 (at node 169)
Average injected packet length = 1
Average accepted packet length = 1
Total in-flight flits = 3376 (3376 measured)
latency change    = 0.000307732
throughput change = 0.000409786
Draining all recorded packets ...
Draining remaining packets ...
Time taken is 3070 cycles
====== Traffic class 0 ======
Overall minimum packet latency = 5 (1 samples)
Overall average packet latency = 18.6017 (1 samples)
Overall maximum packet latency = 42 (1 samples)
Overall minimum network latency = 5 (1 samples)
Overall average network latency = 18.6017 (1 samples)
Overall maximum network latency = 42 (1 samples)
Overall minimum flit latency = 5 (1 samples)
Overall average flit latency = 18.6157 (1 samples)
Overall maximum flit latency = 42 (1 samples)
Overall minimum fragmentation = 0 (1 samples)
Overall average fragmentation = 0 (1 samples)
Overall maximum fragmentation = 0 (1 samples)
Overall minimum injected packet rate = 0.66 (1 samples)
Overall average injected packet rate = 0.699326 (1 samples)
Overall maximum injected packet rate = 0.736 (1 samples)
Overall minimum accepted packet rate = 0.661333 (1 samples)
Overall average accepted packet rate = 0.699044 (1 samples)
Overall maximum accepted packet rate = 0.734667 (1 samples)
Overall minimum injected flit rate = 0.66 (1 samples)
Overall average injected flit rate = 0.699326 (1 samples)
Overall maximum injected flit rate = 0.736 (1 samples)
Overall minimum accepted flit rate = 0.661333 (1 samples)
Overall average accepted flit rate = 0.699044 (1 samples)
Overall maximum accepted flit rate = 0.734667 (1 samples)
Overall average injected packet size = 1 (1 samples)
Overall average accepted packet size = 1 (1 samples)
Overall average hops = 4.26853 (1 samples)
Total run time 24.9587
