BEGIN Configuration File: ./FBF-3.conf
injection_rate = 0.5;
traffic = bitrev;
routing_function = ran_min;
vc_buf_size = 16;
topology = flatfly;
use_noc_latency = 0;
hold_switch_for_packet=0;

c = 4;
k = 8;
n = 2;

x  = 8;
y  = 8;
xr = 2;
yr = 2;

packet_size  = 1;
num_vcs      = 2;
vc_allocator = separable_input_first; 
sw_allocator = separable_input_first;

alloc_iters   = 1;
sample_period = 500;

wait_for_tail_credit = 0;
use_read_write       = 0;

credit_delay   = 2;
routing_delay  = 0;
vc_alloc_delay = 1;
sw_alloc_delay = 1;
st_final_delay = 1;

input_speedup     = 1;
output_speedup    = 1;
internal_speedup  = 2.0;

warmup_periods = 3;
sim_count      = 1;

priority = none;
injection_rate_uses_flits=1;

END Configuration File: ./FBF-3.conf
Number of nodes: 256
Number of routers: 64
 Flat Bufferfly 
 k = 8 n = 2 c = 4
 each switch - total radix =  18
 # of switches = 64
 # of channels = 896
 # of nodes ( size of network ) = 256
0
Class 0:
Minimum packet latency = 5
Average packet latency = 20.6952
Maximum packet latency = 77
Minimum network latency = 5
Average network latency = 20.6952
Maximum network latency = 77
Slowest packet = 53861
Minimum flit latency = 5
Average flit latency = 20.6952
Maximum flit latency = 77
Slowest flit = 53861
Minimum fragmentation = 0
Average fragmentation = 0
Maximum fragmentation = 0
Minimum injected packet rate = 0.426 (at node 110)
Average injected packet rate = 0.499609
Maximum injected packet rate = 0.562 (at node 22)
Minimum accepted packet rate = 0.42 (at node 53)
Average accepted packet rate = 0.472938
Maximum accepted packet rate = 0.532 (at node 189)
Minimum injected flit rate = 0.426 (at node 110)
Average injected flit rate = 0.499609
Maximum injected flit rate = 0.562 (at node 22)
Minimum accepted flit rate = 0.42 (at node 53)
Average accepted flit rate = 0.472938
Maximum accepted flit rate = 0.532 (at node 189)
Average injected packet length = 1
Average accepted packet length = 1
Total in-flight flits = 3414 (0 measured)
latency change    = 1
throughput change = 1
0
Class 0:
Minimum packet latency = 5
Average packet latency = 25.5787
Maximum packet latency = 96
Minimum network latency = 5
Average network latency = 25.5787
Maximum network latency = 96
Slowest packet = 96139
Minimum flit latency = 5
Average flit latency = 25.5787
Maximum flit latency = 96
Slowest flit = 96139
Minimum fragmentation = 0
Average fragmentation = 0
Maximum fragmentation = 0
Minimum injected packet rate = 0.448 (at node 173)
Average injected packet rate = 0.499969
Maximum injected packet rate = 0.541 (at node 74)
Minimum accepted packet rate = 0.443 (at node 92)
Average accepted packet rate = 0.483125
Maximum accepted packet rate = 0.536 (at node 189)
Minimum injected flit rate = 0.448 (at node 173)
Average injected flit rate = 0.499969
Maximum injected flit rate = 0.541 (at node 74)
Minimum accepted flit rate = 0.443 (at node 92)
Average accepted flit rate = 0.483125
Maximum accepted flit rate = 0.536 (at node 189)
Average injected packet length = 1
Average accepted packet length = 1
Total in-flight flits = 4312 (0 measured)
latency change    = 0.19092
throughput change = 0.0210867
0
Class 0:
Minimum packet latency = 5
Average packet latency = 36.259
Maximum packet latency = 113
Minimum network latency = 5
Average network latency = 36.2561
Maximum network latency = 109
Slowest packet = 154694
Minimum flit latency = 5
Average flit latency = 36.2561
Maximum flit latency = 109
Slowest flit = 154694
Minimum fragmentation = 0
Average fragmentation = 0
Maximum fragmentation = 0
Minimum injected packet rate = 0.438 (at node 57)
Average injected packet rate = 0.500117
Maximum injected packet rate = 0.558 (at node 191)
Minimum accepted packet rate = 0.438 (at node 239)
Average accepted packet rate = 0.494805
Maximum accepted packet rate = 0.528 (at node 169)
Minimum injected flit rate = 0.438 (at node 57)
Average injected flit rate = 0.500117
Maximum injected flit rate = 0.558 (at node 191)
Minimum accepted flit rate = 0.438 (at node 239)
Average accepted flit rate = 0.494805
Maximum accepted flit rate = 0.528 (at node 169)
Average injected packet length = 1
Average accepted packet length = 1
Total in-flight flits = 4992 (0 measured)
latency change    = 0.294556
throughput change = 0.0236046
Warmed up ...Time used is 1500 cycles
1
Class 0:
Minimum packet latency = 5
Average packet latency = 41.4672
Maximum packet latency = 133
Minimum network latency = 5
Average network latency = 41.416
Maximum network latency = 124
Slowest packet = 209824
Minimum flit latency = 5
Average flit latency = 42.1941
Maximum flit latency = 124
Slowest flit = 221684
Minimum fragmentation = 0
Average fragmentation = 0
Maximum fragmentation = 0
Minimum injected packet rate = 0.438 (at node 104)
Average injected packet rate = 0.501094
Maximum injected packet rate = 0.58 (at node 38)
Minimum accepted packet rate = 0.44 (at node 24)
Average accepted packet rate = 0.495078
Maximum accepted packet rate = 0.538 (at node 0)
Minimum injected flit rate = 0.438 (at node 104)
Average injected flit rate = 0.501094
Maximum injected flit rate = 0.58 (at node 38)
Minimum accepted flit rate = 0.44 (at node 24)
Average accepted flit rate = 0.495078
Maximum accepted flit rate = 0.538 (at node 0)
Average injected packet length = 1
Average accepted packet length = 1
Total in-flight flits = 5766 (5766 measured)
latency change    = 0.125597
throughput change = 0.000552312
1
Class 0:
Minimum packet latency = 5
Average packet latency = 44.4626
Maximum packet latency = 146
Minimum network latency = 5
Average network latency = 44.3029
Maximum network latency = 138
Slowest packet = 209824
Minimum flit latency = 5
Average flit latency = 44.578
Maximum flit latency = 138
Slowest flit = 278703
Minimum fragmentation = 0
Average fragmentation = 0
Maximum fragmentation = 0
Minimum injected packet rate = 0.449 (at node 41)
Average injected packet rate = 0.500391
Maximum injected packet rate = 0.548 (at node 38)
Minimum accepted packet rate = 0.46 (at node 29)
Average accepted packet rate = 0.495484
Maximum accepted packet rate = 0.527 (at node 90)
Minimum injected flit rate = 0.449 (at node 41)
Average injected flit rate = 0.500391
Maximum injected flit rate = 0.548 (at node 38)
Minimum accepted flit rate = 0.46 (at node 29)
Average accepted flit rate = 0.495484
Maximum accepted flit rate = 0.527 (at node 90)
Average injected packet length = 1
Average accepted packet length = 1
Total in-flight flits = 6256 (6256 measured)
latency change    = 0.0673686
throughput change = 0.000819905
1
Class 0:
Minimum packet latency = 5
Average packet latency = 46.8599
Maximum packet latency = 167
Minimum network latency = 5
Average network latency = 46.4312
Maximum network latency = 138
Slowest packet = 209824
Minimum flit latency = 5
Average flit latency = 46.5588
Maximum flit latency = 138
Slowest flit = 278703
Minimum fragmentation = 0
Average fragmentation = 0
Maximum fragmentation = 0
Minimum injected packet rate = 0.468667 (at node 190)
Average injected packet rate = 0.500164
Maximum injected packet rate = 0.530667 (at node 25)
Minimum accepted packet rate = 0.470667 (at node 38)
Average accepted packet rate = 0.495536
Maximum accepted packet rate = 0.526 (at node 152)
Minimum injected flit rate = 0.468667 (at node 190)
Average injected flit rate = 0.500164
Maximum injected flit rate = 0.530667 (at node 25)
Minimum accepted flit rate = 0.470667 (at node 38)
Average accepted flit rate = 0.495536
Maximum accepted flit rate = 0.526 (at node 152)
Average injected packet length = 1
Average accepted packet length = 1
Total in-flight flits = 6781 (6781 measured)
latency change    = 0.0511597
throughput change = 0.000105105
1
Class 0:
Minimum packet latency = 5
Average packet latency = 49.2806
Maximum packet latency = 203
Minimum network latency = 5
Average network latency = 48.4614
Maximum network latency = 138
Slowest packet = 209824
Minimum flit latency = 5
Average flit latency = 48.5171
Maximum flit latency = 138
Slowest flit = 278703
Minimum fragmentation = 0
Average fragmentation = 0
Maximum fragmentation = 0
Minimum injected packet rate = 0.4745 (at node 190)
Average injected packet rate = 0.500178
Maximum injected packet rate = 0.529 (at node 25)
Minimum accepted packet rate = 0.4675 (at node 125)
Average accepted packet rate = 0.495666
Maximum accepted packet rate = 0.524 (at node 152)
Minimum injected flit rate = 0.4745 (at node 190)
Average injected flit rate = 0.500178
Maximum injected flit rate = 0.529 (at node 25)
Minimum accepted flit rate = 0.4675 (at node 125)
Average accepted flit rate = 0.495666
Maximum accepted flit rate = 0.524 (at node 152)
Average injected packet length = 1
Average accepted packet length = 1
Total in-flight flits = 7317 (7317 measured)
latency change    = 0.0491206
throughput change = 0.00026138
1
Class 0:
Minimum packet latency = 5
Average packet latency = 51.6434
Maximum packet latency = 212
Minimum network latency = 5
Average network latency = 50.3167
Maximum network latency = 140
Slowest packet = 209824
Minimum flit latency = 5
Average flit latency = 50.3321
Maximum flit latency = 140
Slowest flit = 482335
Minimum fragmentation = 0
Average fragmentation = 0
Maximum fragmentation = 0
Minimum injected packet rate = 0.4696 (at node 231)
Average injected packet rate = 0.499588
Maximum injected packet rate = 0.528 (at node 25)
Minimum accepted packet rate = 0.4696 (at node 231)
Average accepted packet rate = 0.495797
Maximum accepted packet rate = 0.5244 (at node 152)
Minimum injected flit rate = 0.4696 (at node 231)
Average injected flit rate = 0.499588
Maximum injected flit rate = 0.528 (at node 25)
Minimum accepted flit rate = 0.4696 (at node 231)
Average accepted flit rate = 0.495797
Maximum accepted flit rate = 0.5244 (at node 152)
Average injected packet length = 1
Average accepted packet length = 1
Total in-flight flits = 7436 (7436 measured)
latency change    = 0.0457521
throughput change = 0.000263937
1
Class 0:
Minimum packet latency = 5
Average packet latency = 53.7233
Maximum packet latency = 221
Minimum network latency = 5
Average network latency = 51.8056
Maximum network latency = 142
Slowest packet = 209824
Minimum flit latency = 5
Average flit latency = 51.7989
Maximum flit latency = 142
Slowest flit = 499430
Minimum fragmentation = 0
Average fragmentation = 0
Maximum fragmentation = 0
Minimum injected packet rate = 0.474333 (at node 154)
Average injected packet rate = 0.49932
Maximum injected packet rate = 0.525 (at node 25)
Minimum accepted packet rate = 0.476 (at node 8)
Average accepted packet rate = 0.495891
Maximum accepted packet rate = 0.523 (at node 152)
Minimum injected flit rate = 0.474333 (at node 154)
Average injected flit rate = 0.49932
Maximum injected flit rate = 0.525 (at node 25)
Minimum accepted flit rate = 0.476 (at node 8)
Average accepted flit rate = 0.495891
Maximum accepted flit rate = 0.523 (at node 152)
Average injected packet length = 1
Average accepted packet length = 1
Total in-flight flits = 7643 (7643 measured)
latency change    = 0.038715
throughput change = 0.000189054
Draining all recorded packets ...
Draining remaining packets ...
Time taken is 4835 cycles
====== Traffic class 0 ======
Overall minimum packet latency = 5 (1 samples)
Overall average packet latency = 54.5583 (1 samples)
Overall maximum packet latency = 221 (1 samples)
Overall minimum network latency = 5 (1 samples)
Overall average network latency = 52.4034 (1 samples)
Overall maximum network latency = 142 (1 samples)
Overall minimum flit latency = 5 (1 samples)
Overall average flit latency = 52.7927 (1 samples)
Overall maximum flit latency = 142 (1 samples)
Overall minimum fragmentation = 0 (1 samples)
Overall average fragmentation = 0 (1 samples)
Overall maximum fragmentation = 0 (1 samples)
Overall minimum injected packet rate = 0.474333 (1 samples)
Overall average injected packet rate = 0.49932 (1 samples)
Overall maximum injected packet rate = 0.525 (1 samples)
Overall minimum accepted packet rate = 0.476 (1 samples)
Overall average accepted packet rate = 0.495891 (1 samples)
Overall maximum accepted packet rate = 0.523 (1 samples)
Overall minimum injected flit rate = 0.474333 (1 samples)
Overall average injected flit rate = 0.49932 (1 samples)
Overall maximum injected flit rate = 0.525 (1 samples)
Overall minimum accepted flit rate = 0.476 (1 samples)
Overall average accepted flit rate = 0.495891 (1 samples)
Overall maximum accepted flit rate = 0.523 (1 samples)
Overall average injected packet size = 1 (1 samples)
Overall average accepted packet size = 1 (1 samples)
Overall average hops = 2.75085 (1 samples)
Total run time 22.8193
