BEGIN Configuration File: ./FBF-3.conf
injection_rate = 0.4;
traffic = shuffle;
routing_function = xyyx;
vc_buf_size = 16;
topology = flatfly;
use_noc_latency = 0;
hold_switch_for_packet=0;

c = 4;
k = 8;
n = 2;

x  = 8;
y  = 8;
xr = 2;
yr = 2;

packet_size  = 1;
num_vcs      = 2;
vc_allocator = separable_input_first; 
sw_allocator = separable_input_first;

alloc_iters   = 1;
sample_period = 500;

wait_for_tail_credit = 0;
use_read_write       = 0;

credit_delay   = 2;
routing_delay  = 0;
vc_alloc_delay = 1;
sw_alloc_delay = 1;
st_final_delay = 1;

input_speedup     = 1;
output_speedup    = 1;
internal_speedup  = 2.0;

warmup_periods = 3;
sim_count      = 1;

priority = none;
injection_rate_uses_flits=1;

END Configuration File: ./FBF-3.conf
Number of nodes: 256
Number of routers: 64
 Flat Bufferfly 
 k = 8 n = 2 c = 4
 each switch - total radix =  18
 # of switches = 64
 # of channels = 896
 # of nodes ( size of network ) = 256
0
Class 0:
Minimum packet latency = 5
Average packet latency = 12.6137
Maximum packet latency = 32
Minimum network latency = 5
Average network latency = 12.6137
Maximum network latency = 32
Slowest packet = 36574
Minimum flit latency = 5
Average flit latency = 12.6137
Maximum flit latency = 32
Slowest flit = 36574
Minimum fragmentation = 0
Average fragmentation = 0
Maximum fragmentation = 0
Minimum injected packet rate = 0.334 (at node 172)
Average injected packet rate = 0.398383
Maximum injected packet rate = 0.452 (at node 149)
Minimum accepted packet rate = 0.326 (at node 89)
Average accepted packet rate = 0.388203
Maximum accepted packet rate = 0.434 (at node 43)
Minimum injected flit rate = 0.334 (at node 172)
Average injected flit rate = 0.398383
Maximum injected flit rate = 0.452 (at node 149)
Minimum accepted flit rate = 0.326 (at node 89)
Average accepted flit rate = 0.388203
Maximum accepted flit rate = 0.434 (at node 43)
Average injected packet length = 1
Average accepted packet length = 1
Total in-flight flits = 1303 (0 measured)
latency change    = 1
throughput change = 1
0
Class 0:
Minimum packet latency = 5
Average packet latency = 12.6631
Maximum packet latency = 32
Minimum network latency = 5
Average network latency = 12.6631
Maximum network latency = 32
Slowest packet = 36574
Minimum flit latency = 5
Average flit latency = 12.6631
Maximum flit latency = 32
Slowest flit = 36574
Minimum fragmentation = 0
Average fragmentation = 0
Maximum fragmentation = 0
Minimum injected packet rate = 0.363 (at node 53)
Average injected packet rate = 0.399004
Maximum injected packet rate = 0.439 (at node 74)
Minimum accepted packet rate = 0.352 (at node 106)
Average accepted packet rate = 0.393688
Maximum accepted packet rate = 0.434 (at node 123)
Minimum injected flit rate = 0.363 (at node 53)
Average injected flit rate = 0.399004
Maximum injected flit rate = 0.439 (at node 74)
Minimum accepted flit rate = 0.352 (at node 106)
Average accepted flit rate = 0.393688
Maximum accepted flit rate = 0.434 (at node 123)
Average injected packet length = 1
Average accepted packet length = 1
Total in-flight flits = 1361 (0 measured)
latency change    = 0.00390234
throughput change = 0.0139308
0
Class 0:
Minimum packet latency = 5
Average packet latency = 12.7628
Maximum packet latency = 33
Minimum network latency = 5
Average network latency = 12.7628
Maximum network latency = 33
Slowest packet = 125476
Minimum flit latency = 5
Average flit latency = 12.7628
Maximum flit latency = 33
Slowest flit = 125476
Minimum fragmentation = 0
Average fragmentation = 0
Maximum fragmentation = 0
Minimum injected packet rate = 0.34 (at node 186)
Average injected packet rate = 0.399008
Maximum injected packet rate = 0.46 (at node 51)
Minimum accepted packet rate = 0.336 (at node 117)
Average accepted packet rate = 0.399883
Maximum accepted packet rate = 0.456 (at node 102)
Minimum injected flit rate = 0.34 (at node 186)
Average injected flit rate = 0.399008
Maximum injected flit rate = 0.46 (at node 51)
Minimum accepted flit rate = 0.336 (at node 117)
Average accepted flit rate = 0.399883
Maximum accepted flit rate = 0.456 (at node 102)
Average injected packet length = 1
Average accepted packet length = 1
Total in-flight flits = 1249 (0 measured)
latency change    = 0.00780564
throughput change = 0.0154928
Warmed up ...Time used is 1500 cycles
1
Class 0:
Minimum packet latency = 5
Average packet latency = 12.7439
Maximum packet latency = 32
Minimum network latency = 5
Average network latency = 12.7439
Maximum network latency = 32
Slowest packet = 158907
Minimum flit latency = 5
Average flit latency = 12.7542
Maximum flit latency = 32
Slowest flit = 158907
Minimum fragmentation = 0
Average fragmentation = 0
Maximum fragmentation = 0
Minimum injected packet rate = 0.332 (at node 233)
Average injected packet rate = 0.401258
Maximum injected packet rate = 0.464 (at node 239)
Minimum accepted packet rate = 0.336 (at node 211)
Average accepted packet rate = 0.400453
Maximum accepted packet rate = 0.452 (at node 223)
Minimum injected flit rate = 0.332 (at node 233)
Average injected flit rate = 0.401258
Maximum injected flit rate = 0.464 (at node 239)
Minimum accepted flit rate = 0.336 (at node 211)
Average accepted flit rate = 0.400453
Maximum accepted flit rate = 0.452 (at node 223)
Average injected packet length = 1
Average accepted packet length = 1
Total in-flight flits = 1352 (1352 measured)
latency change    = 0.0014765
throughput change = 0.00142417
1
Class 0:
Minimum packet latency = 5
Average packet latency = 12.7508
Maximum packet latency = 33
Minimum network latency = 5
Average network latency = 12.7508
Maximum network latency = 33
Slowest packet = 213524
Minimum flit latency = 5
Average flit latency = 12.7558
Maximum flit latency = 33
Slowest flit = 213524
Minimum fragmentation = 0
Average fragmentation = 0
Maximum fragmentation = 0
Minimum injected packet rate = 0.367 (at node 171)
Average injected packet rate = 0.400414
Maximum injected packet rate = 0.437 (at node 220)
Minimum accepted packet rate = 0.366 (at node 232)
Average accepted packet rate = 0.400242
Maximum accepted packet rate = 0.436 (at node 189)
Minimum injected flit rate = 0.367 (at node 171)
Average injected flit rate = 0.400414
Maximum injected flit rate = 0.437 (at node 220)
Minimum accepted flit rate = 0.366 (at node 232)
Average accepted flit rate = 0.400242
Maximum accepted flit rate = 0.436 (at node 189)
Average injected packet length = 1
Average accepted packet length = 1
Total in-flight flits = 1293 (1293 measured)
latency change    = 0.000537744
throughput change = 0.000527025
1
Class 0:
Minimum packet latency = 5
Average packet latency = 12.7706
Maximum packet latency = 34
Minimum network latency = 5
Average network latency = 12.7706
Maximum network latency = 34
Slowest packet = 292376
Minimum flit latency = 5
Average flit latency = 12.7738
Maximum flit latency = 34
Slowest flit = 292376
Minimum fragmentation = 0
Average fragmentation = 0
Maximum fragmentation = 0
Minimum injected packet rate = 0.364 (at node 252)
Average injected packet rate = 0.400297
Maximum injected packet rate = 0.432 (at node 142)
Minimum accepted packet rate = 0.363333 (at node 249)
Average accepted packet rate = 0.399932
Maximum accepted packet rate = 0.432667 (at node 230)
Minimum injected flit rate = 0.364 (at node 252)
Average injected flit rate = 0.400297
Maximum injected flit rate = 0.432 (at node 142)
Minimum accepted flit rate = 0.363333 (at node 249)
Average accepted flit rate = 0.399932
Maximum accepted flit rate = 0.432667 (at node 230)
Average injected packet length = 1
Average accepted packet length = 1
Total in-flight flits = 1389 (1389 measured)
latency change    = 0.0015504
throughput change = 0.000774871
Draining all recorded packets ...
Draining remaining packets ...
Time taken is 3054 cycles
====== Traffic class 0 ======
Overall minimum packet latency = 5 (1 samples)
Overall average packet latency = 12.7855 (1 samples)
Overall maximum packet latency = 34 (1 samples)
Overall minimum network latency = 5 (1 samples)
Overall average network latency = 12.7855 (1 samples)
Overall maximum network latency = 34 (1 samples)
Overall minimum flit latency = 5 (1 samples)
Overall average flit latency = 12.7909 (1 samples)
Overall maximum flit latency = 34 (1 samples)
Overall minimum fragmentation = 0 (1 samples)
Overall average fragmentation = 0 (1 samples)
Overall maximum fragmentation = 0 (1 samples)
Overall minimum injected packet rate = 0.364 (1 samples)
Overall average injected packet rate = 0.400297 (1 samples)
Overall maximum injected packet rate = 0.432 (1 samples)
Overall minimum accepted packet rate = 0.363333 (1 samples)
Overall average accepted packet rate = 0.399932 (1 samples)
Overall maximum accepted packet rate = 0.432667 (1 samples)
Overall minimum injected flit rate = 0.364 (1 samples)
Overall average injected flit rate = 0.400297 (1 samples)
Overall maximum injected flit rate = 0.432 (1 samples)
Overall minimum accepted flit rate = 0.363333 (1 samples)
Overall average accepted flit rate = 0.399932 (1 samples)
Overall maximum accepted flit rate = 0.432667 (1 samples)
Overall average injected packet size = 1 (1 samples)
Overall average accepted packet size = 1 (1 samples)
Overall average hops = 2.75045 (1 samples)
Total run time 10.0735
