BEGIN Configuration File: ./FBF-3.conf
injection_rate = 0.3;
traffic = asymmetric;
routing_function = ran_min;
vc_buf_size = 16;
topology = flatfly;
use_noc_latency = 0;
hold_switch_for_packet=0;

c = 4;
k = 8;
n = 2;

x  = 8;
y  = 8;
xr = 2;
yr = 2;

packet_size  = 1;
num_vcs      = 2;
vc_allocator = separable_input_first; 
sw_allocator = separable_input_first;

alloc_iters   = 1;
sample_period = 500;

wait_for_tail_credit = 0;
use_read_write       = 0;

credit_delay   = 2;
routing_delay  = 0;
vc_alloc_delay = 1;
sw_alloc_delay = 1;
st_final_delay = 1;

input_speedup     = 1;
output_speedup    = 1;
internal_speedup  = 2.0;

warmup_periods = 3;
sim_count      = 1;

priority = none;
injection_rate_uses_flits=1;

END Configuration File: ./FBF-3.conf
Number of nodes: 256
Number of routers: 64
 Flat Bufferfly 
 k = 8 n = 2 c = 4
 each switch - total radix =  18
 # of switches = 64
 # of channels = 896
 # of nodes ( size of network ) = 256
0
Class 0:
Minimum packet latency = 5
Average packet latency = 6.87026
Maximum packet latency = 16
Minimum network latency = 5
Average network latency = 6.87026
Maximum network latency = 16
Slowest packet = 4464
Minimum flit latency = 5
Average flit latency = 6.87026
Maximum flit latency = 16
Slowest flit = 4464
Minimum fragmentation = 0
Average fragmentation = 0
Maximum fragmentation = 0
Minimum injected packet rate = 0.238 (at node 172)
Average injected packet rate = 0.299031
Maximum injected packet rate = 0.348 (at node 22)
Minimum accepted packet rate = 0.238 (at node 76)
Average accepted packet rate = 0.295055
Maximum accepted packet rate = 0.36 (at node 51)
Minimum injected flit rate = 0.238 (at node 172)
Average injected flit rate = 0.299031
Maximum injected flit rate = 0.348 (at node 22)
Minimum accepted flit rate = 0.238 (at node 76)
Average accepted flit rate = 0.295055
Maximum accepted flit rate = 0.36 (at node 51)
Average injected packet length = 1
Average accepted packet length = 1
Total in-flight flits = 509 (0 measured)
latency change    = 1
throughput change = 1
0
Class 0:
Minimum packet latency = 5
Average packet latency = 6.88234
Maximum packet latency = 16
Minimum network latency = 5
Average network latency = 6.88234
Maximum network latency = 16
Slowest packet = 4464
Minimum flit latency = 5
Average flit latency = 6.88234
Maximum flit latency = 16
Slowest flit = 4464
Minimum fragmentation = 0
Average fragmentation = 0
Maximum fragmentation = 0
Minimum injected packet rate = 0.262 (at node 203)
Average injected packet rate = 0.299043
Maximum injected packet rate = 0.337 (at node 223)
Minimum accepted packet rate = 0.244 (at node 44)
Average accepted packet rate = 0.296824
Maximum accepted packet rate = 0.34 (at node 61)
Minimum injected flit rate = 0.262 (at node 203)
Average injected flit rate = 0.299043
Maximum injected flit rate = 0.337 (at node 223)
Minimum accepted flit rate = 0.244 (at node 44)
Average accepted flit rate = 0.296824
Maximum accepted flit rate = 0.34 (at node 61)
Average injected packet length = 1
Average accepted packet length = 1
Total in-flight flits = 568 (0 measured)
latency change    = 0.00175493
throughput change = 0.00596155
0
Class 0:
Minimum packet latency = 5
Average packet latency = 6.88405
Maximum packet latency = 16
Minimum network latency = 5
Average network latency = 6.88405
Maximum network latency = 16
Slowest packet = 79341
Minimum flit latency = 5
Average flit latency = 6.88405
Maximum flit latency = 16
Slowest flit = 79341
Minimum fragmentation = 0
Average fragmentation = 0
Maximum fragmentation = 0
Minimum injected packet rate = 0.238 (at node 29)
Average injected packet rate = 0.298266
Maximum injected packet rate = 0.358 (at node 23)
Minimum accepted packet rate = 0.236 (at node 86)
Average accepted packet rate = 0.298812
Maximum accepted packet rate = 0.372 (at node 160)
Minimum injected flit rate = 0.238 (at node 29)
Average injected flit rate = 0.298266
Maximum injected flit rate = 0.358 (at node 23)
Minimum accepted flit rate = 0.236 (at node 86)
Average accepted flit rate = 0.298812
Maximum accepted flit rate = 0.372 (at node 160)
Average injected packet length = 1
Average accepted packet length = 1
Total in-flight flits = 498 (0 measured)
latency change    = 0.000248559
throughput change = 0.00665394
Warmed up ...Time used is 1500 cycles
1
Class 0:
Minimum packet latency = 5
Average packet latency = 6.89394
Maximum packet latency = 21
Minimum network latency = 5
Average network latency = 6.89394
Maximum network latency = 21
Slowest packet = 147187
Minimum flit latency = 5
Average flit latency = 6.90293
Maximum flit latency = 21
Slowest flit = 147187
Minimum fragmentation = 0
Average fragmentation = 0
Maximum fragmentation = 0
Minimum injected packet rate = 0.246 (at node 138)
Average injected packet rate = 0.300984
Maximum injected packet rate = 0.358 (at node 142)
Minimum accepted packet rate = 0.246 (at node 203)
Average accepted packet rate = 0.30068
Maximum accepted packet rate = 0.366 (at node 215)
Minimum injected flit rate = 0.246 (at node 138)
Average injected flit rate = 0.300984
Maximum injected flit rate = 0.358 (at node 142)
Minimum accepted flit rate = 0.246 (at node 203)
Average accepted flit rate = 0.30068
Maximum accepted flit rate = 0.366 (at node 215)
Average injected packet length = 1
Average accepted packet length = 1
Total in-flight flits = 537 (537 measured)
latency change    = 0.00143557
throughput change = 0.00620989
1
Class 0:
Minimum packet latency = 5
Average packet latency = 6.88928
Maximum packet latency = 21
Minimum network latency = 5
Average network latency = 6.88928
Maximum network latency = 21
Slowest packet = 147187
Minimum flit latency = 5
Average flit latency = 6.89381
Maximum flit latency = 21
Slowest flit = 147187
Minimum fragmentation = 0
Average fragmentation = 0
Maximum fragmentation = 0
Minimum injected packet rate = 0.266 (at node 138)
Average injected packet rate = 0.300621
Maximum injected packet rate = 0.334 (at node 30)
Minimum accepted packet rate = 0.259 (at node 247)
Average accepted packet rate = 0.300527
Maximum accepted packet rate = 0.344 (at node 60)
Minimum injected flit rate = 0.266 (at node 138)
Average injected flit rate = 0.300621
Maximum injected flit rate = 0.334 (at node 30)
Minimum accepted flit rate = 0.259 (at node 247)
Average accepted flit rate = 0.300527
Maximum accepted flit rate = 0.344 (at node 60)
Average injected packet length = 1
Average accepted packet length = 1
Total in-flight flits = 522 (522 measured)
latency change    = 0.000676647
throughput change = 0.000506921
1
Class 0:
Minimum packet latency = 5
Average packet latency = 6.88473
Maximum packet latency = 21
Minimum network latency = 5
Average network latency = 6.88473
Maximum network latency = 21
Slowest packet = 147187
Minimum flit latency = 5
Average flit latency = 6.88777
Maximum flit latency = 21
Slowest flit = 147187
Minimum fragmentation = 0
Average fragmentation = 0
Maximum fragmentation = 0
Minimum injected packet rate = 0.268 (at node 39)
Average injected packet rate = 0.300388
Maximum injected packet rate = 0.336 (at node 142)
Minimum accepted packet rate = 0.256667 (at node 213)
Average accepted packet rate = 0.300193
Maximum accepted packet rate = 0.333333 (at node 24)
Minimum injected flit rate = 0.268 (at node 39)
Average injected flit rate = 0.300388
Maximum injected flit rate = 0.336 (at node 142)
Minimum accepted flit rate = 0.256667 (at node 213)
Average accepted flit rate = 0.300193
Maximum accepted flit rate = 0.333333 (at node 24)
Average injected packet length = 1
Average accepted packet length = 1
Total in-flight flits = 573 (573 measured)
latency change    = 0.000660791
throughput change = 0.00111474
Draining all recorded packets ...
Draining remaining packets ...
Time taken is 3027 cycles
====== Traffic class 0 ======
Overall minimum packet latency = 5 (1 samples)
Overall average packet latency = 6.88843 (1 samples)
Overall maximum packet latency = 21 (1 samples)
Overall minimum network latency = 5 (1 samples)
Overall average network latency = 6.88843 (1 samples)
Overall maximum network latency = 21 (1 samples)
Overall minimum flit latency = 5 (1 samples)
Overall average flit latency = 6.8905 (1 samples)
Overall maximum flit latency = 21 (1 samples)
Overall minimum fragmentation = 0 (1 samples)
Overall average fragmentation = 0 (1 samples)
Overall maximum fragmentation = 0 (1 samples)
Overall minimum injected packet rate = 0.268 (1 samples)
Overall average injected packet rate = 0.300388 (1 samples)
Overall maximum injected packet rate = 0.336 (1 samples)
Overall minimum accepted packet rate = 0.256667 (1 samples)
Overall average accepted packet rate = 0.300193 (1 samples)
Overall maximum accepted packet rate = 0.333333 (1 samples)
Overall minimum injected flit rate = 0.268 (1 samples)
Overall average injected flit rate = 0.300388 (1 samples)
Overall maximum injected flit rate = 0.336 (1 samples)
Overall minimum accepted flit rate = 0.256667 (1 samples)
Overall average accepted flit rate = 0.300193 (1 samples)
Overall maximum accepted flit rate = 0.333333 (1 samples)
Overall average injected packet size = 1 (1 samples)
Overall average accepted packet size = 1 (1 samples)
Overall average hops = 1.49982 (1 samples)
Total run time 5.58737
