BEGIN Configuration File: ./FBF-3.conf
injection_rate = 0.2;
traffic = asymmetric;
routing_function = ugal;
vc_buf_size = 16;
topology = flatfly;
use_noc_latency = 0;
hold_switch_for_packet=0;

c = 4;
k = 8;
n = 2;

x  = 8;
y  = 8;
xr = 2;
yr = 2;

packet_size  = 1;
num_vcs      = 2;
vc_allocator = separable_input_first; 
sw_allocator = separable_input_first;

alloc_iters   = 1;
sample_period = 500;

wait_for_tail_credit = 0;
use_read_write       = 0;

credit_delay   = 2;
routing_delay  = 0;
vc_alloc_delay = 1;
sw_alloc_delay = 1;
st_final_delay = 1;

input_speedup     = 1;
output_speedup    = 1;
internal_speedup  = 2.0;

warmup_periods = 3;
sim_count      = 1;

priority = none;
injection_rate_uses_flits=1;

END Configuration File: ./FBF-3.conf
Number of nodes: 256
Number of routers: 64
 Flat Bufferfly 
 k = 8 n = 2 c = 4
 each switch - total radix =  18
 # of switches = 64
 # of channels = 896
 # of nodes ( size of network ) = 256
0
Class 0:
Minimum packet latency = 5
Average packet latency = 6.99554
Maximum packet latency = 14
Minimum network latency = 5
Average network latency = 6.99554
Maximum network latency = 14
Slowest packet = 2158
Minimum flit latency = 5
Average flit latency = 6.99554
Maximum flit latency = 14
Slowest flit = 2158
Minimum fragmentation = 0
Average fragmentation = 0
Maximum fragmentation = 0
Minimum injected packet rate = 0.158 (at node 1)
Average injected packet rate = 0.198797
Maximum injected packet rate = 0.254 (at node 239)
Minimum accepted packet rate = 0.144 (at node 18)
Average accepted packet rate = 0.196172
Maximum accepted packet rate = 0.244 (at node 33)
Minimum injected flit rate = 0.158 (at node 1)
Average injected flit rate = 0.198797
Maximum injected flit rate = 0.254 (at node 239)
Minimum accepted flit rate = 0.144 (at node 18)
Average accepted flit rate = 0.196172
Maximum accepted flit rate = 0.244 (at node 33)
Average injected packet length = 1
Average accepted packet length = 1
Total in-flight flits = 336 (0 measured)
latency change    = 1
throughput change = 1
0
Class 0:
Minimum packet latency = 5
Average packet latency = 6.99407
Maximum packet latency = 14
Minimum network latency = 5
Average network latency = 6.99407
Maximum network latency = 14
Slowest packet = 2158
Minimum flit latency = 5
Average flit latency = 6.99407
Maximum flit latency = 14
Slowest flit = 2158
Minimum fragmentation = 0
Average fragmentation = 0
Maximum fragmentation = 0
Minimum injected packet rate = 0.17 (at node 104)
Average injected packet rate = 0.199156
Maximum injected packet rate = 0.232 (at node 22)
Minimum accepted packet rate = 0.156 (at node 173)
Average accepted packet rate = 0.197641
Maximum accepted packet rate = 0.237 (at node 234)
Minimum injected flit rate = 0.17 (at node 104)
Average injected flit rate = 0.199156
Maximum injected flit rate = 0.232 (at node 22)
Minimum accepted flit rate = 0.156 (at node 173)
Average accepted flit rate = 0.197641
Maximum accepted flit rate = 0.237 (at node 234)
Average injected packet length = 1
Average accepted packet length = 1
Total in-flight flits = 388 (0 measured)
latency change    = 0.000210028
throughput change = 0.00743142
0
Class 0:
Minimum packet latency = 5
Average packet latency = 7.02472
Maximum packet latency = 15
Minimum network latency = 5
Average network latency = 7.02472
Maximum network latency = 15
Slowest packet = 60750
Minimum flit latency = 5
Average flit latency = 7.02472
Maximum flit latency = 15
Slowest flit = 60750
Minimum fragmentation = 0
Average fragmentation = 0
Maximum fragmentation = 0
Minimum injected packet rate = 0.148 (at node 29)
Average injected packet rate = 0.199695
Maximum injected packet rate = 0.264 (at node 39)
Minimum accepted packet rate = 0.132 (at node 157)
Average accepted packet rate = 0.200047
Maximum accepted packet rate = 0.248 (at node 132)
Minimum injected flit rate = 0.148 (at node 29)
Average injected flit rate = 0.199695
Maximum injected flit rate = 0.264 (at node 39)
Minimum accepted flit rate = 0.132 (at node 157)
Average accepted flit rate = 0.200047
Maximum accepted flit rate = 0.248 (at node 132)
Average injected packet length = 1
Average accepted packet length = 1
Total in-flight flits = 343 (0 measured)
latency change    = 0.00436318
throughput change = 0.0120284
Warmed up ...Time used is 1500 cycles
1
Class 0:
Minimum packet latency = 5
Average packet latency = 6.99611
Maximum packet latency = 14
Minimum network latency = 5
Average network latency = 6.99611
Maximum network latency = 14
Slowest packet = 91380
Minimum flit latency = 5
Average flit latency = 7.00913
Maximum flit latency = 14
Slowest flit = 91380
Minimum fragmentation = 0
Average fragmentation = 0
Maximum fragmentation = 0
Minimum injected packet rate = 0.142 (at node 174)
Average injected packet rate = 0.1995
Maximum injected packet rate = 0.252 (at node 122)
Minimum accepted packet rate = 0.154 (at node 111)
Average accepted packet rate = 0.199297
Maximum accepted packet rate = 0.252 (at node 5)
Minimum injected flit rate = 0.142 (at node 174)
Average injected flit rate = 0.1995
Maximum injected flit rate = 0.252 (at node 122)
Minimum accepted flit rate = 0.154 (at node 111)
Average accepted flit rate = 0.199297
Maximum accepted flit rate = 0.252 (at node 5)
Average injected packet length = 1
Average accepted packet length = 1
Total in-flight flits = 369 (369 measured)
latency change    = 0.0040901
throughput change = 0.00376323
1
Class 0:
Minimum packet latency = 5
Average packet latency = 7.00259
Maximum packet latency = 14
Minimum network latency = 5
Average network latency = 7.00259
Maximum network latency = 14
Slowest packet = 91380
Minimum flit latency = 5
Average flit latency = 7.00901
Maximum flit latency = 14
Slowest flit = 91380
Minimum fragmentation = 0
Average fragmentation = 0
Maximum fragmentation = 0
Minimum injected packet rate = 0.165 (at node 191)
Average injected packet rate = 0.200563
Maximum injected packet rate = 0.24 (at node 53)
Minimum accepted packet rate = 0.167 (at node 63)
Average accepted packet rate = 0.200625
Maximum accepted packet rate = 0.24 (at node 64)
Minimum injected flit rate = 0.165 (at node 191)
Average injected flit rate = 0.200563
Maximum injected flit rate = 0.24 (at node 53)
Minimum accepted flit rate = 0.167 (at node 63)
Average accepted flit rate = 0.200625
Maximum accepted flit rate = 0.24 (at node 64)
Average injected packet length = 1
Average accepted packet length = 1
Total in-flight flits = 327 (327 measured)
latency change    = 0.000925567
throughput change = 0.00661994
1
Class 0:
Minimum packet latency = 5
Average packet latency = 7.00174
Maximum packet latency = 14
Minimum network latency = 5
Average network latency = 7.00174
Maximum network latency = 14
Slowest packet = 91380
Minimum flit latency = 5
Average flit latency = 7.00604
Maximum flit latency = 14
Slowest flit = 91380
Minimum fragmentation = 0
Average fragmentation = 0
Maximum fragmentation = 0
Minimum injected packet rate = 0.169333 (at node 174)
Average injected packet rate = 0.200125
Maximum injected packet rate = 0.230667 (at node 163)
Minimum accepted packet rate = 0.172667 (at node 73)
Average accepted packet rate = 0.200029
Maximum accepted packet rate = 0.240667 (at node 87)
Minimum injected flit rate = 0.169333 (at node 174)
Average injected flit rate = 0.200125
Maximum injected flit rate = 0.230667 (at node 163)
Minimum accepted flit rate = 0.172667 (at node 73)
Average accepted flit rate = 0.200029
Maximum accepted flit rate = 0.240667 (at node 87)
Average injected packet length = 1
Average accepted packet length = 1
Total in-flight flits = 380 (380 measured)
latency change    = 0.000121125
throughput change = 0.00298134
Draining all recorded packets ...
Draining remaining packets ...
Time taken is 3026 cycles
====== Traffic class 0 ======
Overall minimum packet latency = 5 (1 samples)
Overall average packet latency = 7.00636 (1 samples)
Overall maximum packet latency = 14 (1 samples)
Overall minimum network latency = 5 (1 samples)
Overall average network latency = 7.00636 (1 samples)
Overall maximum network latency = 14 (1 samples)
Overall minimum flit latency = 5 (1 samples)
Overall average flit latency = 7.01098 (1 samples)
Overall maximum flit latency = 14 (1 samples)
Overall minimum fragmentation = 0 (1 samples)
Overall average fragmentation = 0 (1 samples)
Overall maximum fragmentation = 0 (1 samples)
Overall minimum injected packet rate = 0.169333 (1 samples)
Overall average injected packet rate = 0.200125 (1 samples)
Overall maximum injected packet rate = 0.230667 (1 samples)
Overall minimum accepted packet rate = 0.172667 (1 samples)
Overall average accepted packet rate = 0.200029 (1 samples)
Overall maximum accepted packet rate = 0.240667 (1 samples)
Overall minimum injected flit rate = 0.169333 (1 samples)
Overall average injected flit rate = 0.200125 (1 samples)
Overall maximum injected flit rate = 0.230667 (1 samples)
Overall minimum accepted flit rate = 0.172667 (1 samples)
Overall average accepted flit rate = 0.200029 (1 samples)
Overall maximum accepted flit rate = 0.240667 (1 samples)
Overall average injected packet size = 1 (1 samples)
Overall average accepted packet size = 1 (1 samples)
Overall average hops = 1.61649 (1 samples)
Total run time 4.35974
