BEGIN Configuration File: ./FBF-3.conf
injection_rate = 0.3;
traffic = uniform;
routing_function = valiant;
vc_buf_size = 16;
topology = flatfly;
use_noc_latency = 0;
hold_switch_for_packet=0;

c = 4;
k = 8;
n = 2;

x  = 8;
y  = 8;
xr = 2;
yr = 2;

packet_size  = 1;
num_vcs      = 2;
vc_allocator = separable_input_first; 
sw_allocator = separable_input_first;

alloc_iters   = 1;
sample_period = 500;

wait_for_tail_credit = 0;
use_read_write       = 0;

credit_delay   = 2;
routing_delay  = 0;
vc_alloc_delay = 1;
sw_alloc_delay = 1;
st_final_delay = 1;

input_speedup     = 1;
output_speedup    = 1;
internal_speedup  = 2.0;

warmup_periods = 3;
sim_count      = 1;

priority = none;
injection_rate_uses_flits=1;

END Configuration File: ./FBF-3.conf
Number of nodes: 256
Number of routers: 64
 Flat Bufferfly 
 k = 8 n = 2 c = 4
 each switch - total radix =  18
 # of switches = 64
 # of channels = 896
 # of nodes ( size of network ) = 256
0
Class 0:
Minimum packet latency = 5
Average packet latency = 16.1512
Maximum packet latency = 27
Minimum network latency = 5
Average network latency = 16.1512
Maximum network latency = 27
Slowest packet = 13428
Minimum flit latency = 5
Average flit latency = 16.1512
Maximum flit latency = 27
Slowest flit = 13428
Minimum fragmentation = 0
Average fragmentation = 0
Maximum fragmentation = 0
Minimum injected packet rate = 0.238 (at node 172)
Average injected packet rate = 0.299031
Maximum injected packet rate = 0.348 (at node 22)
Minimum accepted packet rate = 0.236 (at node 205)
Average accepted packet rate = 0.289469
Maximum accepted packet rate = 0.368 (at node 72)
Minimum injected flit rate = 0.238 (at node 172)
Average injected flit rate = 0.299031
Maximum injected flit rate = 0.348 (at node 22)
Minimum accepted flit rate = 0.236 (at node 205)
Average accepted flit rate = 0.289469
Maximum accepted flit rate = 0.368 (at node 72)
Average injected packet length = 1
Average accepted packet length = 1
Total in-flight flits = 1224 (0 measured)
latency change    = 1
throughput change = 1
0
Class 0:
Minimum packet latency = 5
Average packet latency = 16.1685
Maximum packet latency = 27
Minimum network latency = 5
Average network latency = 16.1685
Maximum network latency = 27
Slowest packet = 13428
Minimum flit latency = 5
Average flit latency = 16.1685
Maximum flit latency = 27
Slowest flit = 13428
Minimum fragmentation = 0
Average fragmentation = 0
Maximum fragmentation = 0
Minimum injected packet rate = 0.262 (at node 203)
Average injected packet rate = 0.299043
Maximum injected packet rate = 0.337 (at node 223)
Minimum accepted packet rate = 0.249 (at node 21)
Average accepted packet rate = 0.293945
Maximum accepted packet rate = 0.335 (at node 67)
Minimum injected flit rate = 0.262 (at node 203)
Average injected flit rate = 0.299043
Maximum injected flit rate = 0.337 (at node 223)
Minimum accepted flit rate = 0.249 (at node 21)
Average accepted flit rate = 0.293945
Maximum accepted flit rate = 0.335 (at node 67)
Average injected packet length = 1
Average accepted packet length = 1
Total in-flight flits = 1305 (0 measured)
latency change    = 0.00107152
throughput change = 0.0152292
0
Class 0:
Minimum packet latency = 5
Average packet latency = 16.1163
Maximum packet latency = 26
Minimum network latency = 5
Average network latency = 16.1163
Maximum network latency = 26
Slowest packet = 96598
Minimum flit latency = 5
Average flit latency = 16.1163
Maximum flit latency = 26
Slowest flit = 96598
Minimum fragmentation = 0
Average fragmentation = 0
Maximum fragmentation = 0
Minimum injected packet rate = 0.238 (at node 29)
Average injected packet rate = 0.298266
Maximum injected packet rate = 0.358 (at node 23)
Minimum accepted packet rate = 0.242 (at node 26)
Average accepted packet rate = 0.299109
Maximum accepted packet rate = 0.364 (at node 108)
Minimum injected flit rate = 0.238 (at node 29)
Average injected flit rate = 0.298266
Maximum injected flit rate = 0.358 (at node 23)
Minimum accepted flit rate = 0.242 (at node 26)
Average accepted flit rate = 0.299109
Maximum accepted flit rate = 0.364 (at node 108)
Average injected packet length = 1
Average accepted packet length = 1
Total in-flight flits = 1197 (0 measured)
latency change    = 0.00324282
throughput change = 0.0172648
Warmed up ...Time used is 1500 cycles
1
Class 0:
Minimum packet latency = 5
Average packet latency = 16.1355
Maximum packet latency = 27
Minimum network latency = 5
Average network latency = 16.1355
Maximum network latency = 27
Slowest packet = 134622
Minimum flit latency = 5
Average flit latency = 16.1525
Maximum flit latency = 27
Slowest flit = 134622
Minimum fragmentation = 0
Average fragmentation = 0
Maximum fragmentation = 0
Minimum injected packet rate = 0.246 (at node 138)
Average injected packet rate = 0.300984
Maximum injected packet rate = 0.358 (at node 142)
Minimum accepted packet rate = 0.232 (at node 2)
Average accepted packet rate = 0.300438
Maximum accepted packet rate = 0.37 (at node 3)
Minimum injected flit rate = 0.246 (at node 138)
Average injected flit rate = 0.300984
Maximum injected flit rate = 0.358 (at node 142)
Minimum accepted flit rate = 0.232 (at node 2)
Average accepted flit rate = 0.300438
Maximum accepted flit rate = 0.37 (at node 3)
Average injected packet length = 1
Average accepted packet length = 1
Total in-flight flits = 1267 (1267 measured)
latency change    = 0.00119333
throughput change = 0.00442064
1
Class 0:
Minimum packet latency = 5
Average packet latency = 16.1562
Maximum packet latency = 27
Minimum network latency = 5
Average network latency = 16.1562
Maximum network latency = 27
Slowest packet = 134622
Minimum flit latency = 5
Average flit latency = 16.1643
Maximum flit latency = 27
Slowest flit = 134622
Minimum fragmentation = 0
Average fragmentation = 0
Maximum fragmentation = 0
Minimum injected packet rate = 0.266 (at node 138)
Average injected packet rate = 0.300621
Maximum injected packet rate = 0.334 (at node 30)
Minimum accepted packet rate = 0.255 (at node 116)
Average accepted packet rate = 0.300238
Maximum accepted packet rate = 0.351 (at node 148)
Minimum injected flit rate = 0.266 (at node 138)
Average injected flit rate = 0.300621
Maximum injected flit rate = 0.334 (at node 30)
Minimum accepted flit rate = 0.255 (at node 116)
Average accepted flit rate = 0.300238
Maximum accepted flit rate = 0.351 (at node 148)
Average injected packet length = 1
Average accepted packet length = 1
Total in-flight flits = 1295 (1295 measured)
latency change    = 0.0012775
throughput change = 0.000663535
1
Class 0:
Minimum packet latency = 5
Average packet latency = 16.1575
Maximum packet latency = 27
Minimum network latency = 5
Average network latency = 16.1575
Maximum network latency = 27
Slowest packet = 134622
Minimum flit latency = 5
Average flit latency = 16.1629
Maximum flit latency = 27
Slowest flit = 134622
Minimum fragmentation = 0
Average fragmentation = 0
Maximum fragmentation = 0
Minimum injected packet rate = 0.268 (at node 39)
Average injected packet rate = 0.300388
Maximum injected packet rate = 0.336 (at node 142)
Minimum accepted packet rate = 0.258667 (at node 2)
Average accepted packet rate = 0.300182
Maximum accepted packet rate = 0.344667 (at node 64)
Minimum injected flit rate = 0.268 (at node 39)
Average injected flit rate = 0.300388
Maximum injected flit rate = 0.336 (at node 142)
Minimum accepted flit rate = 0.258667 (at node 2)
Average accepted flit rate = 0.300182
Maximum accepted flit rate = 0.344667 (at node 64)
Average injected packet length = 1
Average accepted packet length = 1
Total in-flight flits = 1276 (1276 measured)
latency change    = 8.32199e-05
throughput change = 0.000186519
Draining all recorded packets ...
Draining remaining packets ...
Time taken is 3044 cycles
====== Traffic class 0 ======
Overall minimum packet latency = 5 (1 samples)
Overall average packet latency = 16.1631 (1 samples)
Overall maximum packet latency = 27 (1 samples)
Overall minimum network latency = 5 (1 samples)
Overall average network latency = 16.1631 (1 samples)
Overall maximum network latency = 27 (1 samples)
Overall minimum flit latency = 5 (1 samples)
Overall average flit latency = 16.1668 (1 samples)
Overall maximum flit latency = 27 (1 samples)
Overall minimum fragmentation = 0 (1 samples)
Overall average fragmentation = 0 (1 samples)
Overall maximum fragmentation = 0 (1 samples)
Overall minimum injected packet rate = 0.268 (1 samples)
Overall average injected packet rate = 0.300388 (1 samples)
Overall maximum injected packet rate = 0.336 (1 samples)
Overall minimum accepted packet rate = 0.258667 (1 samples)
Overall average accepted packet rate = 0.300182 (1 samples)
Overall maximum accepted packet rate = 0.344667 (1 samples)
Overall minimum injected flit rate = 0.268 (1 samples)
Overall average injected flit rate = 0.300388 (1 samples)
Overall maximum injected flit rate = 0.336 (1 samples)
Overall minimum accepted flit rate = 0.258667 (1 samples)
Overall average accepted flit rate = 0.300182 (1 samples)
Overall maximum accepted flit rate = 0.344667 (1 samples)
Overall average injected packet size = 1 (1 samples)
Overall average accepted packet size = 1 (1 samples)
Overall average hops = 4.42327 (1 samples)
Total run time 11.1259
