BEGIN Configuration File: ./FBF-3.conf
injection_rate = 0.2;
traffic = bitrev;
routing_function = adaptive_xyyx;
vc_buf_size = 16;
topology = flatfly;
use_noc_latency = 0;
hold_switch_for_packet=0;

c = 4;
k = 8;
n = 2;

x  = 8;
y  = 8;
xr = 2;
yr = 2;

packet_size  = 1;
num_vcs      = 2;
vc_allocator = separable_input_first; 
sw_allocator = separable_input_first;

alloc_iters   = 1;
sample_period = 500;

wait_for_tail_credit = 0;
use_read_write       = 0;

credit_delay   = 2;
routing_delay  = 0;
vc_alloc_delay = 1;
sw_alloc_delay = 1;
st_final_delay = 1;

input_speedup     = 1;
output_speedup    = 1;
internal_speedup  = 2.0;

warmup_periods = 3;
sim_count      = 1;

priority = none;
injection_rate_uses_flits=1;

END Configuration File: ./FBF-3.conf
Number of nodes: 256
Number of routers: 64
 Flat Bufferfly 
 k = 8 n = 2 c = 4
 each switch - total radix =  18
 # of switches = 64
 # of channels = 896
 # of nodes ( size of network ) = 256
0
Class 0:
Minimum packet latency = 5
Average packet latency = 10.4565
Maximum packet latency = 16
Minimum network latency = 5
Average network latency = 10.4565
Maximum network latency = 16
Slowest packet = 1161
Minimum flit latency = 5
Average flit latency = 10.4565
Maximum flit latency = 16
Slowest flit = 1161
Minimum fragmentation = 0
Average fragmentation = 0
Maximum fragmentation = 0
Minimum injected packet rate = 0.158 (at node 1)
Average injected packet rate = 0.198797
Maximum injected packet rate = 0.254 (at node 239)
Minimum accepted packet rate = 0.152 (at node 128)
Average accepted packet rate = 0.194812
Maximum accepted packet rate = 0.254 (at node 247)
Minimum injected flit rate = 0.158 (at node 1)
Average injected flit rate = 0.198797
Maximum injected flit rate = 0.254 (at node 239)
Minimum accepted flit rate = 0.152 (at node 128)
Average accepted flit rate = 0.194812
Maximum accepted flit rate = 0.254 (at node 247)
Average injected packet length = 1
Average accepted packet length = 1
Total in-flight flits = 510 (0 measured)
latency change    = 1
throughput change = 1
0
Class 0:
Minimum packet latency = 5
Average packet latency = 10.4572
Maximum packet latency = 16
Minimum network latency = 5
Average network latency = 10.4572
Maximum network latency = 16
Slowest packet = 1161
Minimum flit latency = 5
Average flit latency = 10.4572
Maximum flit latency = 16
Slowest flit = 1161
Minimum fragmentation = 0
Average fragmentation = 0
Maximum fragmentation = 0
Minimum injected packet rate = 0.17 (at node 104)
Average injected packet rate = 0.199156
Maximum injected packet rate = 0.232 (at node 22)
Minimum accepted packet rate = 0.168 (at node 22)
Average accepted packet rate = 0.196926
Maximum accepted packet rate = 0.232 (at node 247)
Minimum injected flit rate = 0.17 (at node 104)
Average injected flit rate = 0.199156
Maximum injected flit rate = 0.232 (at node 22)
Minimum accepted flit rate = 0.168 (at node 22)
Average accepted flit rate = 0.196926
Maximum accepted flit rate = 0.232 (at node 247)
Average injected packet length = 1
Average accepted packet length = 1
Total in-flight flits = 571 (0 measured)
latency change    = 6.64251e-05
throughput change = 0.0107314
0
Class 0:
Minimum packet latency = 5
Average packet latency = 10.4454
Maximum packet latency = 17
Minimum network latency = 5
Average network latency = 10.4454
Maximum network latency = 17
Slowest packet = 51583
Minimum flit latency = 5
Average flit latency = 10.4454
Maximum flit latency = 17
Slowest flit = 51583
Minimum fragmentation = 0
Average fragmentation = 0
Maximum fragmentation = 0
Minimum injected packet rate = 0.148 (at node 29)
Average injected packet rate = 0.199695
Maximum injected packet rate = 0.264 (at node 39)
Minimum accepted packet rate = 0.142 (at node 100)
Average accepted packet rate = 0.2
Maximum accepted packet rate = 0.264 (at node 228)
Minimum injected flit rate = 0.148 (at node 29)
Average injected flit rate = 0.199695
Maximum injected flit rate = 0.264 (at node 39)
Minimum accepted flit rate = 0.142 (at node 100)
Average accepted flit rate = 0.2
Maximum accepted flit rate = 0.264 (at node 228)
Average injected packet length = 1
Average accepted packet length = 1
Total in-flight flits = 532 (0 measured)
latency change    = 0.00113282
throughput change = 0.0153711
Warmed up ...Time used is 1500 cycles
1
Class 0:
Minimum packet latency = 5
Average packet latency = 10.4426
Maximum packet latency = 18
Minimum network latency = 5
Average network latency = 10.4426
Maximum network latency = 18
Slowest packet = 100851
Minimum flit latency = 5
Average flit latency = 10.4516
Maximum flit latency = 18
Slowest flit = 100851
Minimum fragmentation = 0
Average fragmentation = 0
Maximum fragmentation = 0
Minimum injected packet rate = 0.142 (at node 174)
Average injected packet rate = 0.1995
Maximum injected packet rate = 0.252 (at node 122)
Minimum accepted packet rate = 0.142 (at node 117)
Average accepted packet rate = 0.199391
Maximum accepted packet rate = 0.254 (at node 94)
Minimum injected flit rate = 0.142 (at node 174)
Average injected flit rate = 0.1995
Maximum injected flit rate = 0.252 (at node 122)
Minimum accepted flit rate = 0.142 (at node 117)
Average accepted flit rate = 0.199391
Maximum accepted flit rate = 0.254 (at node 94)
Average injected packet length = 1
Average accepted packet length = 1
Total in-flight flits = 546 (546 measured)
latency change    = 0.000269435
throughput change = 0.00305619
1
Class 0:
Minimum packet latency = 5
Average packet latency = 10.4569
Maximum packet latency = 18
Minimum network latency = 5
Average network latency = 10.4569
Maximum network latency = 18
Slowest packet = 100851
Minimum flit latency = 5
Average flit latency = 10.4612
Maximum flit latency = 18
Slowest flit = 100851
Minimum fragmentation = 0
Average fragmentation = 0
Maximum fragmentation = 0
Minimum injected packet rate = 0.165 (at node 191)
Average injected packet rate = 0.200563
Maximum injected packet rate = 0.24 (at node 53)
Minimum accepted packet rate = 0.164 (at node 117)
Average accepted packet rate = 0.200555
Maximum accepted packet rate = 0.24 (at node 172)
Minimum injected flit rate = 0.165 (at node 191)
Average injected flit rate = 0.200563
Maximum injected flit rate = 0.24 (at node 53)
Minimum accepted flit rate = 0.164 (at node 117)
Average accepted flit rate = 0.200555
Maximum accepted flit rate = 0.24 (at node 172)
Average injected packet length = 1
Average accepted packet length = 1
Total in-flight flits = 534 (534 measured)
latency change    = 0.00136579
throughput change = 0.00580421
1
Class 0:
Minimum packet latency = 5
Average packet latency = 10.46
Maximum packet latency = 18
Minimum network latency = 5
Average network latency = 10.46
Maximum network latency = 18
Slowest packet = 100851
Minimum flit latency = 5
Average flit latency = 10.4629
Maximum flit latency = 18
Slowest flit = 100851
Minimum fragmentation = 0
Average fragmentation = 0
Maximum fragmentation = 0
Minimum injected packet rate = 0.169333 (at node 174)
Average injected packet rate = 0.200125
Maximum injected packet rate = 0.230667 (at node 163)
Minimum accepted packet rate = 0.166 (at node 117)
Average accepted packet rate = 0.200076
Maximum accepted packet rate = 0.228667 (at node 120)
Minimum injected flit rate = 0.169333 (at node 174)
Average injected flit rate = 0.200125
Maximum injected flit rate = 0.230667 (at node 163)
Minimum accepted flit rate = 0.166 (at node 117)
Average accepted flit rate = 0.200076
Maximum accepted flit rate = 0.228667 (at node 120)
Average injected packet length = 1
Average accepted packet length = 1
Total in-flight flits = 551 (551 measured)
latency change    = 0.000303279
throughput change = 0.00239493
Draining all recorded packets ...
Draining remaining packets ...
Time taken is 3030 cycles
====== Traffic class 0 ======
Overall minimum packet latency = 5 (1 samples)
Overall average packet latency = 10.4624 (1 samples)
Overall maximum packet latency = 18 (1 samples)
Overall minimum network latency = 5 (1 samples)
Overall average network latency = 10.4624 (1 samples)
Overall maximum network latency = 18 (1 samples)
Overall minimum flit latency = 5 (1 samples)
Overall average flit latency = 10.4651 (1 samples)
Overall maximum flit latency = 18 (1 samples)
Overall minimum fragmentation = 0 (1 samples)
Overall average fragmentation = 0 (1 samples)
Overall maximum fragmentation = 0 (1 samples)
Overall minimum injected packet rate = 0.169333 (1 samples)
Overall average injected packet rate = 0.200125 (1 samples)
Overall maximum injected packet rate = 0.230667 (1 samples)
Overall minimum accepted packet rate = 0.166 (1 samples)
Overall average accepted packet rate = 0.200076 (1 samples)
Overall maximum accepted packet rate = 0.228667 (1 samples)
Overall minimum injected flit rate = 0.169333 (1 samples)
Overall average injected flit rate = 0.200125 (1 samples)
Overall maximum injected flit rate = 0.230667 (1 samples)
Overall minimum accepted flit rate = 0.166 (1 samples)
Overall average accepted flit rate = 0.200076 (1 samples)
Overall maximum accepted flit rate = 0.228667 (1 samples)
Overall average injected packet size = 1 (1 samples)
Overall average accepted packet size = 1 (1 samples)
Overall average hops = 2.75288 (1 samples)
Total run time 5.67596
