BEGIN Configuration File: ./FBF-3.conf
injection_rate = 0.3;
traffic = asymmetric;
routing_function = valiant;
vc_buf_size = 16;
topology = flatfly;
use_noc_latency = 0;
hold_switch_for_packet=0;

c = 4;
k = 8;
n = 2;

x  = 8;
y  = 8;
xr = 2;
yr = 2;

packet_size  = 1;
num_vcs      = 2;
vc_allocator = separable_input_first; 
sw_allocator = separable_input_first;

alloc_iters   = 1;
sample_period = 500;

wait_for_tail_credit = 0;
use_read_write       = 0;

credit_delay   = 2;
routing_delay  = 0;
vc_alloc_delay = 1;
sw_alloc_delay = 1;
st_final_delay = 1;

input_speedup     = 1;
output_speedup    = 1;
internal_speedup  = 2.0;

warmup_periods = 3;
sim_count      = 1;

priority = none;
injection_rate_uses_flits=1;

END Configuration File: ./FBF-3.conf
Number of nodes: 256
Number of routers: 64
 Flat Bufferfly 
 k = 8 n = 2 c = 4
 each switch - total radix =  18
 # of switches = 64
 # of channels = 896
 # of nodes ( size of network ) = 256
0
Class 0:
Minimum packet latency = 5
Average packet latency = 10.4697
Maximum packet latency = 22
Minimum network latency = 5
Average network latency = 10.4697
Maximum network latency = 22
Slowest packet = 13525
Minimum flit latency = 5
Average flit latency = 10.4697
Maximum flit latency = 22
Slowest flit = 13525
Minimum fragmentation = 0
Average fragmentation = 0
Maximum fragmentation = 0
Minimum injected packet rate = 0.238 (at node 172)
Average injected packet rate = 0.299031
Maximum injected packet rate = 0.348 (at node 22)
Minimum accepted packet rate = 0.22 (at node 41)
Average accepted packet rate = 0.292883
Maximum accepted packet rate = 0.36 (at node 51)
Minimum injected flit rate = 0.238 (at node 172)
Average injected flit rate = 0.299031
Maximum injected flit rate = 0.348 (at node 22)
Minimum accepted flit rate = 0.22 (at node 41)
Average accepted flit rate = 0.292883
Maximum accepted flit rate = 0.36 (at node 51)
Average injected packet length = 1
Average accepted packet length = 1
Total in-flight flits = 787 (0 measured)
latency change    = 1
throughput change = 1
0
Class 0:
Minimum packet latency = 5
Average packet latency = 10.5098
Maximum packet latency = 23
Minimum network latency = 5
Average network latency = 10.5098
Maximum network latency = 23
Slowest packet = 41053
Minimum flit latency = 5
Average flit latency = 10.5098
Maximum flit latency = 23
Slowest flit = 41053
Minimum fragmentation = 0
Average fragmentation = 0
Maximum fragmentation = 0
Minimum injected packet rate = 0.262 (at node 203)
Average injected packet rate = 0.299043
Maximum injected packet rate = 0.337 (at node 223)
Minimum accepted packet rate = 0.245 (at node 181)
Average accepted packet rate = 0.295641
Maximum accepted packet rate = 0.336 (at node 134)
Minimum injected flit rate = 0.262 (at node 203)
Average injected flit rate = 0.299043
Maximum injected flit rate = 0.337 (at node 223)
Minimum accepted flit rate = 0.245 (at node 181)
Average accepted flit rate = 0.295641
Maximum accepted flit rate = 0.336 (at node 134)
Average injected packet length = 1
Average accepted packet length = 1
Total in-flight flits = 871 (0 measured)
latency change    = 0.00381862
throughput change = 0.00932826
0
Class 0:
Minimum packet latency = 5
Average packet latency = 10.5137
Maximum packet latency = 23
Minimum network latency = 5
Average network latency = 10.5137
Maximum network latency = 23
Slowest packet = 93090
Minimum flit latency = 5
Average flit latency = 10.5137
Maximum flit latency = 23
Slowest flit = 93090
Minimum fragmentation = 0
Average fragmentation = 0
Maximum fragmentation = 0
Minimum injected packet rate = 0.238 (at node 29)
Average injected packet rate = 0.298266
Maximum injected packet rate = 0.358 (at node 23)
Minimum accepted packet rate = 0.234 (at node 29)
Average accepted packet rate = 0.299
Maximum accepted packet rate = 0.364 (at node 222)
Minimum injected flit rate = 0.238 (at node 29)
Average injected flit rate = 0.298266
Maximum injected flit rate = 0.358 (at node 23)
Minimum accepted flit rate = 0.234 (at node 29)
Average accepted flit rate = 0.299
Maximum accepted flit rate = 0.364 (at node 222)
Average injected packet length = 1
Average accepted packet length = 1
Total in-flight flits = 777 (0 measured)
latency change    = 0.000373502
throughput change = 0.0112354
Warmed up ...Time used is 1500 cycles
1
Class 0:
Minimum packet latency = 5
Average packet latency = 10.4392
Maximum packet latency = 23
Minimum network latency = 5
Average network latency = 10.4392
Maximum network latency = 23
Slowest packet = 142274
Minimum flit latency = 5
Average flit latency = 10.5097
Maximum flit latency = 23
Slowest flit = 142274
Minimum fragmentation = 0
Average fragmentation = 0
Maximum fragmentation = 0
Minimum injected packet rate = 0.246 (at node 138)
Average injected packet rate = 0.300984
Maximum injected packet rate = 0.358 (at node 142)
Minimum accepted packet rate = 0.24 (at node 49)
Average accepted packet rate = 0.300812
Maximum accepted packet rate = 0.386 (at node 87)
Minimum injected flit rate = 0.246 (at node 138)
Average injected flit rate = 0.300984
Maximum injected flit rate = 0.358 (at node 142)
Minimum accepted flit rate = 0.24 (at node 49)
Average accepted flit rate = 0.300812
Maximum accepted flit rate = 0.386 (at node 87)
Average injected packet length = 1
Average accepted packet length = 1
Total in-flight flits = 799 (799 measured)
latency change    = 0.00713492
throughput change = 0.00602535
1
Class 0:
Minimum packet latency = 5
Average packet latency = 10.4688
Maximum packet latency = 23
Minimum network latency = 5
Average network latency = 10.4688
Maximum network latency = 23
Slowest packet = 142274
Minimum flit latency = 5
Average flit latency = 10.5038
Maximum flit latency = 23
Slowest flit = 142274
Minimum fragmentation = 0
Average fragmentation = 0
Maximum fragmentation = 0
Minimum injected packet rate = 0.266 (at node 138)
Average injected packet rate = 0.300621
Maximum injected packet rate = 0.334 (at node 30)
Minimum accepted packet rate = 0.26 (at node 182)
Average accepted packet rate = 0.300465
Maximum accepted packet rate = 0.344 (at node 107)
Minimum injected flit rate = 0.266 (at node 138)
Average injected flit rate = 0.300621
Maximum injected flit rate = 0.334 (at node 30)
Minimum accepted flit rate = 0.26 (at node 182)
Average accepted flit rate = 0.300465
Maximum accepted flit rate = 0.344 (at node 107)
Average injected packet length = 1
Average accepted packet length = 1
Total in-flight flits = 817 (817 measured)
latency change    = 0.00282744
throughput change = 0.00115706
1
Class 0:
Minimum packet latency = 5
Average packet latency = 10.4946
Maximum packet latency = 23
Minimum network latency = 5
Average network latency = 10.4946
Maximum network latency = 23
Slowest packet = 142274
Minimum flit latency = 5
Average flit latency = 10.5178
Maximum flit latency = 23
Slowest flit = 142274
Minimum fragmentation = 0
Average fragmentation = 0
Maximum fragmentation = 0
Minimum injected packet rate = 0.268 (at node 39)
Average injected packet rate = 0.300388
Maximum injected packet rate = 0.336 (at node 142)
Minimum accepted packet rate = 0.262 (at node 49)
Average accepted packet rate = 0.300185
Maximum accepted packet rate = 0.341333 (at node 107)
Minimum injected flit rate = 0.268 (at node 39)
Average injected flit rate = 0.300388
Maximum injected flit rate = 0.336 (at node 142)
Minimum accepted flit rate = 0.262 (at node 49)
Average accepted flit rate = 0.300185
Maximum accepted flit rate = 0.341333 (at node 107)
Average injected packet length = 1
Average accepted packet length = 1
Total in-flight flits = 855 (855 measured)
latency change    = 0.00245783
throughput change = 0.000932585
Draining all recorded packets ...
Draining remaining packets ...
Time taken is 3043 cycles
====== Traffic class 0 ======
Overall minimum packet latency = 5 (1 samples)
Overall average packet latency = 10.5184 (1 samples)
Overall maximum packet latency = 23 (1 samples)
Overall minimum network latency = 5 (1 samples)
Overall average network latency = 10.5184 (1 samples)
Overall maximum network latency = 23 (1 samples)
Overall minimum flit latency = 5 (1 samples)
Overall average flit latency = 10.5404 (1 samples)
Overall maximum flit latency = 23 (1 samples)
Overall minimum fragmentation = 0 (1 samples)
Overall average fragmentation = 0 (1 samples)
Overall maximum fragmentation = 0 (1 samples)
Overall minimum injected packet rate = 0.268 (1 samples)
Overall average injected packet rate = 0.300388 (1 samples)
Overall maximum injected packet rate = 0.336 (1 samples)
Overall minimum accepted packet rate = 0.262 (1 samples)
Overall average accepted packet rate = 0.300185 (1 samples)
Overall maximum accepted packet rate = 0.341333 (1 samples)
Overall minimum injected flit rate = 0.268 (1 samples)
Overall average injected flit rate = 0.300388 (1 samples)
Overall maximum injected flit rate = 0.336 (1 samples)
Overall minimum accepted flit rate = 0.262 (1 samples)
Overall average accepted flit rate = 0.300185 (1 samples)
Overall maximum accepted flit rate = 0.341333 (1 samples)
Overall average injected packet size = 1 (1 samples)
Overall average accepted packet size = 1 (1 samples)
Overall average hops = 2.74528 (1 samples)
Total run time 7.82555
