BEGIN Configuration File: ./FBF-3.conf
injection_rate = 0.8;
traffic = asymmetric;
routing_function = valiant;
vc_buf_size = 16;
topology = flatfly;
use_noc_latency = 0;
hold_switch_for_packet=0;

c = 4;
k = 8;
n = 2;

x  = 8;
y  = 8;
xr = 2;
yr = 2;

packet_size  = 1;
num_vcs      = 2;
vc_allocator = separable_input_first; 
sw_allocator = separable_input_first;

alloc_iters   = 1;
sample_period = 500;

wait_for_tail_credit = 0;
use_read_write       = 0;

credit_delay   = 2;
routing_delay  = 0;
vc_alloc_delay = 1;
sw_alloc_delay = 1;
st_final_delay = 1;

input_speedup     = 1;
output_speedup    = 1;
internal_speedup  = 2.0;

warmup_periods = 3;
sim_count      = 1;

priority = none;
injection_rate_uses_flits=1;

END Configuration File: ./FBF-3.conf
Number of nodes: 256
Number of routers: 64
 Flat Bufferfly 
 k = 8 n = 2 c = 4
 each switch - total radix =  18
 # of switches = 64
 # of channels = 896
 # of nodes ( size of network ) = 256
0
Class 0:
Minimum packet latency = 5
Average packet latency = 11.8398
Maximum packet latency = 31
Minimum network latency = 5
Average network latency = 11.8398
Maximum network latency = 31
Slowest packet = 20299
Minimum flit latency = 5
Average flit latency = 11.8398
Maximum flit latency = 31
Slowest flit = 20299
Minimum fragmentation = 0
Average fragmentation = 0
Maximum fragmentation = 0
Minimum injected packet rate = 0.738 (at node 2)
Average injected packet rate = 0.799844
Maximum injected packet rate = 0.848 (at node 45)
Minimum accepted packet rate = 0.682 (at node 193)
Average accepted packet rate = 0.781062
Maximum accepted packet rate = 0.868 (at node 209)
Minimum injected flit rate = 0.738 (at node 2)
Average injected flit rate = 0.799844
Maximum injected flit rate = 0.848 (at node 45)
Minimum accepted flit rate = 0.682 (at node 193)
Average accepted flit rate = 0.781062
Maximum accepted flit rate = 0.868 (at node 209)
Average injected packet length = 1
Average accepted packet length = 1
Total in-flight flits = 2404 (0 measured)
latency change    = 1
throughput change = 1
0
Class 0:
Minimum packet latency = 5
Average packet latency = 11.9208
Maximum packet latency = 33
Minimum network latency = 5
Average network latency = 11.9208
Maximum network latency = 33
Slowest packet = 109052
Minimum flit latency = 5
Average flit latency = 11.9208
Maximum flit latency = 33
Slowest flit = 109052
Minimum fragmentation = 0
Average fragmentation = 0
Maximum fragmentation = 0
Minimum injected packet rate = 0.761 (at node 2)
Average injected packet rate = 0.79868
Maximum injected packet rate = 0.832 (at node 10)
Minimum accepted packet rate = 0.726 (at node 2)
Average accepted packet rate = 0.789
Maximum accepted packet rate = 0.842 (at node 131)
Minimum injected flit rate = 0.761 (at node 2)
Average injected flit rate = 0.79868
Maximum injected flit rate = 0.832 (at node 10)
Minimum accepted flit rate = 0.726 (at node 2)
Average accepted flit rate = 0.789
Maximum accepted flit rate = 0.842 (at node 131)
Average injected packet length = 1
Average accepted packet length = 1
Total in-flight flits = 2478 (0 measured)
latency change    = 0.0067935
throughput change = 0.0100602
0
Class 0:
Minimum packet latency = 5
Average packet latency = 11.9838
Maximum packet latency = 34
Minimum network latency = 5
Average network latency = 11.9838
Maximum network latency = 34
Slowest packet = 263490
Minimum flit latency = 5
Average flit latency = 11.9838
Maximum flit latency = 34
Slowest flit = 263490
Minimum fragmentation = 0
Average fragmentation = 0
Maximum fragmentation = 0
Minimum injected packet rate = 0.74 (at node 171)
Average injected packet rate = 0.799492
Maximum injected packet rate = 0.842 (at node 31)
Minimum accepted packet rate = 0.718 (at node 59)
Average accepted packet rate = 0.799703
Maximum accepted packet rate = 0.898 (at node 97)
Minimum injected flit rate = 0.74 (at node 171)
Average injected flit rate = 0.799492
Maximum injected flit rate = 0.842 (at node 31)
Minimum accepted flit rate = 0.718 (at node 59)
Average accepted flit rate = 0.799703
Maximum accepted flit rate = 0.898 (at node 97)
Average injected packet length = 1
Average accepted packet length = 1
Total in-flight flits = 2451 (0 measured)
latency change    = 0.00525522
throughput change = 0.0133839
Warmed up ...Time used is 1500 cycles
1
Class 0:
Minimum packet latency = 5
Average packet latency = 11.9027
Maximum packet latency = 31
Minimum network latency = 5
Average network latency = 11.9027
Maximum network latency = 31
Slowest packet = 324884
Minimum flit latency = 5
Average flit latency = 11.9826
Maximum flit latency = 31
Slowest flit = 324884
Minimum fragmentation = 0
Average fragmentation = 0
Maximum fragmentation = 0
Minimum injected packet rate = 0.754 (at node 175)
Average injected packet rate = 0.799555
Maximum injected packet rate = 0.838 (at node 52)
Minimum accepted packet rate = 0.71 (at node 77)
Average accepted packet rate = 0.799727
Maximum accepted packet rate = 0.892 (at node 205)
Minimum injected flit rate = 0.754 (at node 175)
Average injected flit rate = 0.799555
Maximum injected flit rate = 0.838 (at node 52)
Minimum accepted flit rate = 0.71 (at node 77)
Average accepted flit rate = 0.799727
Maximum accepted flit rate = 0.892 (at node 205)
Average injected packet length = 1
Average accepted packet length = 1
Total in-flight flits = 2429 (2429 measured)
latency change    = 0.00681501
throughput change = 2.93069e-05
1
Class 0:
Minimum packet latency = 5
Average packet latency = 11.9403
Maximum packet latency = 34
Minimum network latency = 5
Average network latency = 11.9403
Maximum network latency = 34
Slowest packet = 436796
Minimum flit latency = 5
Average flit latency = 11.9798
Maximum flit latency = 34
Slowest flit = 436796
Minimum fragmentation = 0
Average fragmentation = 0
Maximum fragmentation = 0
Minimum injected packet rate = 0.767 (at node 181)
Average injected packet rate = 0.799309
Maximum injected packet rate = 0.831 (at node 52)
Minimum accepted packet rate = 0.736 (at node 98)
Average accepted packet rate = 0.799266
Maximum accepted packet rate = 0.861 (at node 110)
Minimum injected flit rate = 0.767 (at node 181)
Average injected flit rate = 0.799309
Maximum injected flit rate = 0.831 (at node 52)
Minimum accepted flit rate = 0.736 (at node 98)
Average accepted flit rate = 0.799266
Maximum accepted flit rate = 0.861 (at node 110)
Average injected packet length = 1
Average accepted packet length = 1
Total in-flight flits = 2462 (2462 measured)
latency change    = 0.00315183
throughput change = 0.000576701
1
Class 0:
Minimum packet latency = 5
Average packet latency = 11.9596
Maximum packet latency = 34
Minimum network latency = 5
Average network latency = 11.9596
Maximum network latency = 34
Slowest packet = 436796
Minimum flit latency = 5
Average flit latency = 11.9858
Maximum flit latency = 34
Slowest flit = 436796
Minimum fragmentation = 0
Average fragmentation = 0
Maximum fragmentation = 0
Minimum injected packet rate = 0.774667 (at node 1)
Average injected packet rate = 0.79912
Maximum injected packet rate = 0.826 (at node 60)
Minimum accepted packet rate = 0.758 (at node 49)
Average accepted packet rate = 0.79918
Maximum accepted packet rate = 0.846 (at node 110)
Minimum injected flit rate = 0.774667 (at node 1)
Average injected flit rate = 0.79912
Maximum injected flit rate = 0.826 (at node 60)
Minimum accepted flit rate = 0.758 (at node 49)
Average accepted flit rate = 0.79918
Maximum accepted flit rate = 0.846 (at node 110)
Average injected packet length = 1
Average accepted packet length = 1
Total in-flight flits = 2428 (2428 measured)
latency change    = 0.00161462
throughput change = 0.000107532
Draining all recorded packets ...
Draining remaining packets ...
Time taken is 3049 cycles
====== Traffic class 0 ======
Overall minimum packet latency = 5 (1 samples)
Overall average packet latency = 11.9857 (1 samples)
Overall maximum packet latency = 34 (1 samples)
Overall minimum network latency = 5 (1 samples)
Overall average network latency = 11.9857 (1 samples)
Overall maximum network latency = 34 (1 samples)
Overall minimum flit latency = 5 (1 samples)
Overall average flit latency = 12.0069 (1 samples)
Overall maximum flit latency = 34 (1 samples)
Overall minimum fragmentation = 0 (1 samples)
Overall average fragmentation = 0 (1 samples)
Overall maximum fragmentation = 0 (1 samples)
Overall minimum injected packet rate = 0.774667 (1 samples)
Overall average injected packet rate = 0.79912 (1 samples)
Overall maximum injected packet rate = 0.826 (1 samples)
Overall minimum accepted packet rate = 0.758 (1 samples)
Overall average accepted packet rate = 0.79918 (1 samples)
Overall maximum accepted packet rate = 0.846 (1 samples)
Overall minimum injected flit rate = 0.774667 (1 samples)
Overall average injected flit rate = 0.79912 (1 samples)
Overall maximum injected flit rate = 0.826 (1 samples)
Overall minimum accepted flit rate = 0.758 (1 samples)
Overall average accepted flit rate = 0.79918 (1 samples)
Overall maximum accepted flit rate = 0.846 (1 samples)
Overall average injected packet size = 1 (1 samples)
Overall average accepted packet size = 1 (1 samples)
Overall average hops = 2.74579 (1 samples)
Total run time 19.0378
