BEGIN Configuration File: ./FBF-3.conf
injection_rate = 0.4;
traffic = shuffle;
routing_function = adaptive_xyyx;
vc_buf_size = 16;
topology = flatfly;
use_noc_latency = 0;
hold_switch_for_packet=0;

c = 4;
k = 8;
n = 2;

x  = 8;
y  = 8;
xr = 2;
yr = 2;

packet_size  = 1;
num_vcs      = 2;
vc_allocator = separable_input_first; 
sw_allocator = separable_input_first;

alloc_iters   = 1;
sample_period = 500;

wait_for_tail_credit = 0;
use_read_write       = 0;

credit_delay   = 2;
routing_delay  = 0;
vc_alloc_delay = 1;
sw_alloc_delay = 1;
st_final_delay = 1;

input_speedup     = 1;
output_speedup    = 1;
internal_speedup  = 2.0;

warmup_periods = 3;
sim_count      = 1;

priority = none;
injection_rate_uses_flits=1;

END Configuration File: ./FBF-3.conf
Number of nodes: 256
Number of routers: 64
 Flat Bufferfly 
 k = 8 n = 2 c = 4
 each switch - total radix =  18
 # of switches = 64
 # of channels = 896
 # of nodes ( size of network ) = 256
0
Class 0:
Minimum packet latency = 5
Average packet latency = 12.682
Maximum packet latency = 29
Minimum network latency = 5
Average network latency = 12.682
Maximum network latency = 29
Slowest packet = 9026
Minimum flit latency = 5
Average flit latency = 12.682
Maximum flit latency = 29
Slowest flit = 9026
Minimum fragmentation = 0
Average fragmentation = 0
Maximum fragmentation = 0
Minimum injected packet rate = 0.334 (at node 172)
Average injected packet rate = 0.398383
Maximum injected packet rate = 0.452 (at node 149)
Minimum accepted packet rate = 0.322 (at node 89)
Average accepted packet rate = 0.387992
Maximum accepted packet rate = 0.434 (at node 44)
Minimum injected flit rate = 0.334 (at node 172)
Average injected flit rate = 0.398383
Maximum injected flit rate = 0.452 (at node 149)
Minimum accepted flit rate = 0.322 (at node 89)
Average accepted flit rate = 0.387992
Maximum accepted flit rate = 0.434 (at node 44)
Average injected packet length = 1
Average accepted packet length = 1
Total in-flight flits = 1330 (0 measured)
latency change    = 1
throughput change = 1
0
Class 0:
Minimum packet latency = 5
Average packet latency = 12.7339
Maximum packet latency = 29
Minimum network latency = 5
Average network latency = 12.7339
Maximum network latency = 29
Slowest packet = 9026
Minimum flit latency = 5
Average flit latency = 12.7339
Maximum flit latency = 29
Slowest flit = 9026
Minimum fragmentation = 0
Average fragmentation = 0
Maximum fragmentation = 0
Minimum injected packet rate = 0.363 (at node 53)
Average injected packet rate = 0.399004
Maximum injected packet rate = 0.439 (at node 74)
Minimum accepted packet rate = 0.354 (at node 106)
Average accepted packet rate = 0.393668
Maximum accepted packet rate = 0.434 (at node 123)
Minimum injected flit rate = 0.363 (at node 53)
Average injected flit rate = 0.399004
Maximum injected flit rate = 0.439 (at node 74)
Minimum accepted flit rate = 0.354 (at node 106)
Average accepted flit rate = 0.393668
Maximum accepted flit rate = 0.434 (at node 123)
Average injected packet length = 1
Average accepted packet length = 1
Total in-flight flits = 1366 (0 measured)
latency change    = 0.00407539
throughput change = 0.0144177
0
Class 0:
Minimum packet latency = 5
Average packet latency = 12.771
Maximum packet latency = 29
Minimum network latency = 5
Average network latency = 12.771
Maximum network latency = 29
Slowest packet = 119254
Minimum flit latency = 5
Average flit latency = 12.771
Maximum flit latency = 29
Slowest flit = 119254
Minimum fragmentation = 0
Average fragmentation = 0
Maximum fragmentation = 0
Minimum injected packet rate = 0.34 (at node 186)
Average injected packet rate = 0.399008
Maximum injected packet rate = 0.46 (at node 51)
Minimum accepted packet rate = 0.336 (at node 117)
Average accepted packet rate = 0.399953
Maximum accepted packet rate = 0.454 (at node 102)
Minimum injected flit rate = 0.34 (at node 186)
Average injected flit rate = 0.399008
Maximum injected flit rate = 0.46 (at node 51)
Minimum accepted flit rate = 0.336 (at node 117)
Average accepted flit rate = 0.399953
Maximum accepted flit rate = 0.454 (at node 102)
Average injected packet length = 1
Average accepted packet length = 1
Total in-flight flits = 1245 (0 measured)
latency change    = 0.00290159
throughput change = 0.0157147
Warmed up ...Time used is 1500 cycles
1
Class 0:
Minimum packet latency = 5
Average packet latency = 12.7568
Maximum packet latency = 31
Minimum network latency = 5
Average network latency = 12.7568
Maximum network latency = 31
Slowest packet = 175644
Minimum flit latency = 5
Average flit latency = 12.7685
Maximum flit latency = 31
Slowest flit = 175644
Minimum fragmentation = 0
Average fragmentation = 0
Maximum fragmentation = 0
Minimum injected packet rate = 0.332 (at node 233)
Average injected packet rate = 0.401258
Maximum injected packet rate = 0.464 (at node 239)
Minimum accepted packet rate = 0.336 (at node 211)
Average accepted packet rate = 0.400539
Maximum accepted packet rate = 0.452 (at node 152)
Minimum injected flit rate = 0.332 (at node 233)
Average injected flit rate = 0.401258
Maximum injected flit rate = 0.464 (at node 239)
Minimum accepted flit rate = 0.336 (at node 211)
Average accepted flit rate = 0.400539
Maximum accepted flit rate = 0.452 (at node 152)
Average injected packet length = 1
Average accepted packet length = 1
Total in-flight flits = 1337 (1337 measured)
latency change    = 0.00111251
throughput change = 0.00146287
1
Class 0:
Minimum packet latency = 5
Average packet latency = 12.793
Maximum packet latency = 31
Minimum network latency = 5
Average network latency = 12.793
Maximum network latency = 31
Slowest packet = 175644
Minimum flit latency = 5
Average flit latency = 12.7984
Maximum flit latency = 31
Slowest flit = 175644
Minimum fragmentation = 0
Average fragmentation = 0
Maximum fragmentation = 0
Minimum injected packet rate = 0.367 (at node 171)
Average injected packet rate = 0.400414
Maximum injected packet rate = 0.437 (at node 220)
Minimum accepted packet rate = 0.368 (at node 28)
Average accepted packet rate = 0.400207
Maximum accepted packet rate = 0.436 (at node 189)
Minimum injected flit rate = 0.367 (at node 171)
Average injected flit rate = 0.400414
Maximum injected flit rate = 0.437 (at node 220)
Minimum accepted flit rate = 0.368 (at node 28)
Average accepted flit rate = 0.400207
Maximum accepted flit rate = 0.436 (at node 189)
Average injected packet length = 1
Average accepted packet length = 1
Total in-flight flits = 1298 (1298 measured)
latency change    = 0.00282689
throughput change = 0.000829649
1
Class 0:
Minimum packet latency = 5
Average packet latency = 12.7845
Maximum packet latency = 31
Minimum network latency = 5
Average network latency = 12.7845
Maximum network latency = 31
Slowest packet = 175644
Minimum flit latency = 5
Average flit latency = 12.7882
Maximum flit latency = 31
Slowest flit = 175644
Minimum fragmentation = 0
Average fragmentation = 0
Maximum fragmentation = 0
Minimum injected packet rate = 0.364 (at node 252)
Average injected packet rate = 0.400297
Maximum injected packet rate = 0.432 (at node 142)
Minimum accepted packet rate = 0.363333 (at node 249)
Average accepted packet rate = 0.400031
Maximum accepted packet rate = 0.434 (at node 230)
Minimum injected flit rate = 0.364 (at node 252)
Average injected flit rate = 0.400297
Maximum injected flit rate = 0.432 (at node 142)
Minimum accepted flit rate = 0.363333 (at node 249)
Average accepted flit rate = 0.400031
Maximum accepted flit rate = 0.434 (at node 230)
Average injected packet length = 1
Average accepted packet length = 1
Total in-flight flits = 1347 (1347 measured)
latency change    = 0.00066126
throughput change = 0.000439419
Draining all recorded packets ...
Draining remaining packets ...
Time taken is 3048 cycles
====== Traffic class 0 ======
Overall minimum packet latency = 5 (1 samples)
Overall average packet latency = 12.7938 (1 samples)
Overall maximum packet latency = 31 (1 samples)
Overall minimum network latency = 5 (1 samples)
Overall average network latency = 12.7938 (1 samples)
Overall maximum network latency = 31 (1 samples)
Overall minimum flit latency = 5 (1 samples)
Overall average flit latency = 12.7977 (1 samples)
Overall maximum flit latency = 31 (1 samples)
Overall minimum fragmentation = 0 (1 samples)
Overall average fragmentation = 0 (1 samples)
Overall maximum fragmentation = 0 (1 samples)
Overall minimum injected packet rate = 0.364 (1 samples)
Overall average injected packet rate = 0.400297 (1 samples)
Overall maximum injected packet rate = 0.432 (1 samples)
Overall minimum accepted packet rate = 0.363333 (1 samples)
Overall average accepted packet rate = 0.400031 (1 samples)
Overall maximum accepted packet rate = 0.434 (1 samples)
Overall minimum injected flit rate = 0.364 (1 samples)
Overall average injected flit rate = 0.400297 (1 samples)
Overall maximum injected flit rate = 0.432 (1 samples)
Overall minimum accepted flit rate = 0.363333 (1 samples)
Overall average accepted flit rate = 0.400031 (1 samples)
Overall maximum accepted flit rate = 0.434 (1 samples)
Overall average injected packet size = 1 (1 samples)
Overall average accepted packet size = 1 (1 samples)
Overall average hops = 2.75045 (1 samples)
Total run time 10.1586
