BEGIN Configuration File: ./FBF-3.conf
injection_rate = 0.01;
traffic = bitrev;
routing_function = valiant;
vc_buf_size = 16;
topology = flatfly;
use_noc_latency = 0;
hold_switch_for_packet=0;

c = 4;
k = 8;
n = 2;

x  = 8;
y  = 8;
xr = 2;
yr = 2;

packet_size  = 1;
num_vcs      = 2;
vc_allocator = separable_input_first; 
sw_allocator = separable_input_first;

alloc_iters   = 1;
sample_period = 500;

wait_for_tail_credit = 0;
use_read_write       = 0;

credit_delay   = 2;
routing_delay  = 0;
vc_alloc_delay = 1;
sw_alloc_delay = 1;
st_final_delay = 1;

input_speedup     = 1;
output_speedup    = 1;
internal_speedup  = 2.0;

warmup_periods = 3;
sim_count      = 1;

priority = none;
injection_rate_uses_flits=1;

END Configuration File: ./FBF-3.conf
Number of nodes: 256
Number of routers: 64
 Flat Bufferfly 
 k = 8 n = 2 c = 4
 each switch - total radix =  18
 # of switches = 64
 # of channels = 896
 # of nodes ( size of network ) = 256
0
Class 0:
Minimum packet latency = 5
Average packet latency = 14.8604
Maximum packet latency = 18
Minimum network latency = 5
Average network latency = 14.8604
Maximum network latency = 18
Slowest packet = 24
Minimum flit latency = 5
Average flit latency = 14.8604
Maximum flit latency = 18
Slowest flit = 24
Minimum fragmentation = 0
Average fragmentation = 0
Maximum fragmentation = 0
Minimum injected packet rate = 0 (at node 166)
Average injected packet rate = 0.00977344
Maximum injected packet rate = 0.024 (at node 35)
Minimum accepted packet rate = 0 (at node 101)
Average accepted packet rate = 0.00946094
Maximum accepted packet rate = 0.024 (at node 196)
Minimum injected flit rate = 0 (at node 166)
Average injected flit rate = 0.00977344
Maximum injected flit rate = 0.024 (at node 35)
Minimum accepted flit rate = 0 (at node 101)
Average accepted flit rate = 0.00946094
Maximum accepted flit rate = 0.024 (at node 196)
Average injected packet length = 1
Average accepted packet length = 1
Total in-flight flits = 40 (0 measured)
latency change    = 1
throughput change = 1
0
Class 0:
Minimum packet latency = 5
Average packet latency = 14.8761
Maximum packet latency = 18
Minimum network latency = 5
Average network latency = 14.8761
Maximum network latency = 18
Slowest packet = 24
Minimum flit latency = 5
Average flit latency = 14.8761
Maximum flit latency = 18
Slowest flit = 24
Minimum fragmentation = 0
Average fragmentation = 0
Maximum fragmentation = 0
Minimum injected packet rate = 0.003 (at node 30)
Average injected packet rate = 0.00998047
Maximum injected packet rate = 0.022 (at node 170)
Minimum accepted packet rate = 0.003 (at node 7)
Average accepted packet rate = 0.00980859
Maximum accepted packet rate = 0.022 (at node 85)
Minimum injected flit rate = 0.003 (at node 30)
Average injected flit rate = 0.00998047
Maximum injected flit rate = 0.022 (at node 170)
Minimum accepted flit rate = 0.003 (at node 7)
Average accepted flit rate = 0.00980859
Maximum accepted flit rate = 0.022 (at node 85)
Average injected packet length = 1
Average accepted packet length = 1
Total in-flight flits = 44 (0 measured)
latency change    = 0.00105532
throughput change = 0.035444
0
Class 0:
Minimum packet latency = 5
Average packet latency = 14.798
Maximum packet latency = 18
Minimum network latency = 5
Average network latency = 14.798
Maximum network latency = 18
Slowest packet = 2538
Minimum flit latency = 5
Average flit latency = 14.798
Maximum flit latency = 18
Slowest flit = 2538
Minimum fragmentation = 0
Average fragmentation = 0
Maximum fragmentation = 0
Minimum injected packet rate = 0 (at node 94)
Average injected packet rate = 0.00953906
Maximum injected packet rate = 0.02 (at node 10)
Minimum accepted packet rate = 0 (at node 35)
Average accepted packet rate = 0.00959375
Maximum accepted packet rate = 0.022 (at node 80)
Minimum injected flit rate = 0 (at node 94)
Average injected flit rate = 0.00953906
Maximum injected flit rate = 0.02 (at node 10)
Minimum accepted flit rate = 0 (at node 35)
Average accepted flit rate = 0.00959375
Maximum accepted flit rate = 0.022 (at node 80)
Average injected packet length = 1
Average accepted packet length = 1
Total in-flight flits = 37 (0 measured)
latency change    = 0.00527768
throughput change = 0.0223941
Warmed up ...Time used is 1500 cycles
1
Class 0:
Minimum packet latency = 5
Average packet latency = 14.6568
Maximum packet latency = 18
Minimum network latency = 5
Average network latency = 14.6568
Maximum network latency = 18
Slowest packet = 3837
Minimum flit latency = 5
Average flit latency = 14.6821
Maximum flit latency = 18
Slowest flit = 3837
Minimum fragmentation = 0
Average fragmentation = 0
Maximum fragmentation = 0
Minimum injected packet rate = 0 (at node 12)
Average injected packet rate = 0.0101563
Maximum injected packet rate = 0.024 (at node 9)
Minimum accepted packet rate = 0 (at node 47)
Average accepted packet rate = 0.0101016
Maximum accepted packet rate = 0.022 (at node 17)
Minimum injected flit rate = 0 (at node 12)
Average injected flit rate = 0.0101563
Maximum injected flit rate = 0.024 (at node 9)
Minimum accepted flit rate = 0 (at node 47)
Average accepted flit rate = 0.0101016
Maximum accepted flit rate = 0.022 (at node 17)
Average injected packet length = 1
Average accepted packet length = 1
Total in-flight flits = 44 (44 measured)
latency change    = 0.00963362
throughput change = 0.0502707
1
Class 0:
Minimum packet latency = 5
Average packet latency = 14.7381
Maximum packet latency = 18
Minimum network latency = 5
Average network latency = 14.7381
Maximum network latency = 18
Slowest packet = 3837
Minimum flit latency = 5
Average flit latency = 14.7498
Maximum flit latency = 18
Slowest flit = 3837
Minimum fragmentation = 0
Average fragmentation = 0
Maximum fragmentation = 0
Minimum injected packet rate = 0.003 (at node 6)
Average injected packet rate = 0.00992578
Maximum injected packet rate = 0.02 (at node 136)
Minimum accepted packet rate = 0.003 (at node 96)
Average accepted packet rate = 0.00991406
Maximum accepted packet rate = 0.02 (at node 17)
Minimum injected flit rate = 0.003 (at node 6)
Average injected flit rate = 0.00992578
Maximum injected flit rate = 0.02 (at node 136)
Minimum accepted flit rate = 0.003 (at node 96)
Average accepted flit rate = 0.00991406
Maximum accepted flit rate = 0.02 (at node 17)
Average injected packet length = 1
Average accepted packet length = 1
Total in-flight flits = 40 (40 measured)
latency change    = 0.00551344
throughput change = 0.0189125
1
Class 0:
Minimum packet latency = 5
Average packet latency = 14.7855
Maximum packet latency = 18
Minimum network latency = 5
Average network latency = 14.7855
Maximum network latency = 18
Slowest packet = 3837
Minimum flit latency = 5
Average flit latency = 14.7927
Maximum flit latency = 18
Slowest flit = 3837
Minimum fragmentation = 0
Average fragmentation = 0
Maximum fragmentation = 0
Minimum injected packet rate = 0.004 (at node 27)
Average injected packet rate = 0.0100938
Maximum injected packet rate = 0.018 (at node 136)
Minimum accepted packet rate = 0.004 (at node 216)
Average accepted packet rate = 0.0100885
Maximum accepted packet rate = 0.018 (at node 17)
Minimum injected flit rate = 0.004 (at node 27)
Average injected flit rate = 0.0100938
Maximum injected flit rate = 0.018 (at node 136)
Minimum accepted flit rate = 0.004 (at node 216)
Average accepted flit rate = 0.0100885
Maximum accepted flit rate = 0.018 (at node 17)
Average injected packet length = 1
Average accepted packet length = 1
Total in-flight flits = 39 (39 measured)
latency change    = 0.00320616
throughput change = 0.0172948
1
Class 0:
Minimum packet latency = 5
Average packet latency = 14.8009
Maximum packet latency = 18
Minimum network latency = 5
Average network latency = 14.8009
Maximum network latency = 18
Slowest packet = 3837
Minimum flit latency = 5
Average flit latency = 14.8063
Maximum flit latency = 18
Slowest flit = 3837
Minimum fragmentation = 0
Average fragmentation = 0
Maximum fragmentation = 0
Minimum injected packet rate = 0.0045 (at node 144)
Average injected packet rate = 0.0100254
Maximum injected packet rate = 0.016 (at node 136)
Minimum accepted packet rate = 0.0045 (at node 9)
Average accepted packet rate = 0.010041
Maximum accepted packet rate = 0.016 (at node 17)
Minimum injected flit rate = 0.0045 (at node 144)
Average injected flit rate = 0.0100254
Maximum injected flit rate = 0.016 (at node 136)
Minimum accepted flit rate = 0.0045 (at node 9)
Average accepted flit rate = 0.010041
Maximum accepted flit rate = 0.016 (at node 17)
Average injected packet length = 1
Average accepted packet length = 1
Total in-flight flits = 29 (29 measured)
latency change    = 0.00104256
throughput change = 0.00473319
Draining all recorded packets ...
Draining remaining packets ...
Time taken is 3537 cycles
====== Traffic class 0 ======
Overall minimum packet latency = 5 (1 samples)
Overall average packet latency = 14.8007 (1 samples)
Overall maximum packet latency = 18 (1 samples)
Overall minimum network latency = 5 (1 samples)
Overall average network latency = 14.8007 (1 samples)
Overall maximum network latency = 18 (1 samples)
Overall minimum flit latency = 5 (1 samples)
Overall average flit latency = 14.8065 (1 samples)
Overall maximum flit latency = 18 (1 samples)
Overall minimum fragmentation = 0 (1 samples)
Overall average fragmentation = 0 (1 samples)
Overall maximum fragmentation = 0 (1 samples)
Overall minimum injected packet rate = 0.0045 (1 samples)
Overall average injected packet rate = 0.0100254 (1 samples)
Overall maximum injected packet rate = 0.016 (1 samples)
Overall minimum accepted packet rate = 0.0045 (1 samples)
Overall average accepted packet rate = 0.010041 (1 samples)
Overall maximum accepted packet rate = 0.016 (1 samples)
Overall minimum injected flit rate = 0.0045 (1 samples)
Overall average injected flit rate = 0.0100254 (1 samples)
Overall maximum injected flit rate = 0.016 (1 samples)
Overall minimum accepted flit rate = 0.0045 (1 samples)
Overall average accepted flit rate = 0.010041 (1 samples)
Overall maximum accepted flit rate = 0.016 (1 samples)
Overall average injected packet size = 1 (1 samples)
Overall average accepted packet size = 1 (1 samples)
Overall average hops = 4.26125 (1 samples)
Total run time 1.85994
