BEGIN Configuration File: ./FBF-3.conf
injection_rate = 0.4;
traffic = asymmetric;
routing_function = ran_min;
vc_buf_size = 16;
topology = flatfly;
use_noc_latency = 0;
hold_switch_for_packet=0;

c = 4;
k = 8;
n = 2;

x  = 8;
y  = 8;
xr = 2;
yr = 2;

packet_size  = 1;
num_vcs      = 2;
vc_allocator = separable_input_first; 
sw_allocator = separable_input_first;

alloc_iters   = 1;
sample_period = 500;

wait_for_tail_credit = 0;
use_read_write       = 0;

credit_delay   = 2;
routing_delay  = 0;
vc_alloc_delay = 1;
sw_alloc_delay = 1;
st_final_delay = 1;

input_speedup     = 1;
output_speedup    = 1;
internal_speedup  = 2.0;

warmup_periods = 3;
sim_count      = 1;

priority = none;
injection_rate_uses_flits=1;

END Configuration File: ./FBF-3.conf
Number of nodes: 256
Number of routers: 64
 Flat Bufferfly 
 k = 8 n = 2 c = 4
 each switch - total radix =  18
 # of switches = 64
 # of channels = 896
 # of nodes ( size of network ) = 256
0
Class 0:
Minimum packet latency = 5
Average packet latency = 7.38741
Maximum packet latency = 22
Minimum network latency = 5
Average network latency = 7.38741
Maximum network latency = 22
Slowest packet = 19759
Minimum flit latency = 5
Average flit latency = 7.38741
Maximum flit latency = 22
Slowest flit = 19759
Minimum fragmentation = 0
Average fragmentation = 0
Maximum fragmentation = 0
Minimum injected packet rate = 0.334 (at node 172)
Average injected packet rate = 0.398383
Maximum injected packet rate = 0.452 (at node 149)
Minimum accepted packet rate = 0.31 (at node 103)
Average accepted packet rate = 0.392711
Maximum accepted packet rate = 0.458 (at node 108)
Minimum injected flit rate = 0.334 (at node 172)
Average injected flit rate = 0.398383
Maximum injected flit rate = 0.452 (at node 149)
Minimum accepted flit rate = 0.31 (at node 103)
Average accepted flit rate = 0.392711
Maximum accepted flit rate = 0.458 (at node 108)
Average injected packet length = 1
Average accepted packet length = 1
Total in-flight flits = 726 (0 measured)
latency change    = 1
throughput change = 1
0
Class 0:
Minimum packet latency = 5
Average packet latency = 7.41847
Maximum packet latency = 22
Minimum network latency = 5
Average network latency = 7.41847
Maximum network latency = 22
Slowest packet = 19759
Minimum flit latency = 5
Average flit latency = 7.41847
Maximum flit latency = 22
Slowest flit = 19759
Minimum fragmentation = 0
Average fragmentation = 0
Maximum fragmentation = 0
Minimum injected packet rate = 0.363 (at node 53)
Average injected packet rate = 0.399004
Maximum injected packet rate = 0.439 (at node 74)
Minimum accepted packet rate = 0.336 (at node 103)
Average accepted packet rate = 0.395875
Maximum accepted packet rate = 0.447 (at node 202)
Minimum injected flit rate = 0.363 (at node 53)
Average injected flit rate = 0.399004
Maximum injected flit rate = 0.439 (at node 74)
Minimum accepted flit rate = 0.336 (at node 103)
Average accepted flit rate = 0.395875
Maximum accepted flit rate = 0.447 (at node 202)
Average injected packet length = 1
Average accepted packet length = 1
Total in-flight flits = 801 (0 measured)
latency change    = 0.00418612
throughput change = 0.00799258
0
Class 0:
Minimum packet latency = 5
Average packet latency = 7.33919
Maximum packet latency = 21
Minimum network latency = 5
Average network latency = 7.33919
Maximum network latency = 21
Slowest packet = 139999
Minimum flit latency = 5
Average flit latency = 7.33919
Maximum flit latency = 21
Slowest flit = 139999
Minimum fragmentation = 0
Average fragmentation = 0
Maximum fragmentation = 0
Minimum injected packet rate = 0.34 (at node 186)
Average injected packet rate = 0.399008
Maximum injected packet rate = 0.46 (at node 51)
Minimum accepted packet rate = 0.326 (at node 247)
Average accepted packet rate = 0.399602
Maximum accepted packet rate = 0.474 (at node 41)
Minimum injected flit rate = 0.34 (at node 186)
Average injected flit rate = 0.399008
Maximum injected flit rate = 0.46 (at node 51)
Minimum accepted flit rate = 0.326 (at node 247)
Average accepted flit rate = 0.399602
Maximum accepted flit rate = 0.474 (at node 41)
Average injected packet length = 1
Average accepted packet length = 1
Total in-flight flits = 725 (0 measured)
latency change    = 0.0108023
throughput change = 0.0093257
Warmed up ...Time used is 1500 cycles
1
Class 0:
Minimum packet latency = 5
Average packet latency = 7.38172
Maximum packet latency = 22
Minimum network latency = 5
Average network latency = 7.38172
Maximum network latency = 22
Slowest packet = 153296
Minimum flit latency = 5
Average flit latency = 7.39669
Maximum flit latency = 22
Slowest flit = 152089
Minimum fragmentation = 0
Average fragmentation = 0
Maximum fragmentation = 0
Minimum injected packet rate = 0.332 (at node 233)
Average injected packet rate = 0.401258
Maximum injected packet rate = 0.464 (at node 239)
Minimum accepted packet rate = 0.332 (at node 19)
Average accepted packet rate = 0.400836
Maximum accepted packet rate = 0.464 (at node 26)
Minimum injected flit rate = 0.332 (at node 233)
Average injected flit rate = 0.401258
Maximum injected flit rate = 0.464 (at node 239)
Minimum accepted flit rate = 0.332 (at node 19)
Average accepted flit rate = 0.400836
Maximum accepted flit rate = 0.464 (at node 26)
Average injected packet length = 1
Average accepted packet length = 1
Total in-flight flits = 779 (779 measured)
latency change    = 0.00576171
throughput change = 0.0030795
1
Class 0:
Minimum packet latency = 5
Average packet latency = 7.37088
Maximum packet latency = 22
Minimum network latency = 5
Average network latency = 7.37088
Maximum network latency = 22
Slowest packet = 153296
Minimum flit latency = 5
Average flit latency = 7.37846
Maximum flit latency = 22
Slowest flit = 152089
Minimum fragmentation = 0
Average fragmentation = 0
Maximum fragmentation = 0
Minimum injected packet rate = 0.367 (at node 171)
Average injected packet rate = 0.400414
Maximum injected packet rate = 0.437 (at node 220)
Minimum accepted packet rate = 0.353 (at node 54)
Average accepted packet rate = 0.400332
Maximum accepted packet rate = 0.453 (at node 26)
Minimum injected flit rate = 0.367 (at node 171)
Average injected flit rate = 0.400414
Maximum injected flit rate = 0.437 (at node 220)
Minimum accepted flit rate = 0.353 (at node 54)
Average accepted flit rate = 0.400332
Maximum accepted flit rate = 0.453 (at node 26)
Average injected packet length = 1
Average accepted packet length = 1
Total in-flight flits = 746 (746 measured)
latency change    = 0.00146988
throughput change = 0.00125872
1
Class 0:
Minimum packet latency = 5
Average packet latency = 7.38577
Maximum packet latency = 23
Minimum network latency = 5
Average network latency = 7.38577
Maximum network latency = 23
Slowest packet = 272471
Minimum flit latency = 5
Average flit latency = 7.39075
Maximum flit latency = 23
Slowest flit = 272471
Minimum fragmentation = 0
Average fragmentation = 0
Maximum fragmentation = 0
Minimum injected packet rate = 0.364 (at node 252)
Average injected packet rate = 0.400297
Maximum injected packet rate = 0.432 (at node 142)
Minimum accepted packet rate = 0.358667 (at node 54)
Average accepted packet rate = 0.400122
Maximum accepted packet rate = 0.444667 (at node 95)
Minimum injected flit rate = 0.364 (at node 252)
Average injected flit rate = 0.400297
Maximum injected flit rate = 0.432 (at node 142)
Minimum accepted flit rate = 0.358667 (at node 54)
Average accepted flit rate = 0.400122
Maximum accepted flit rate = 0.444667 (at node 95)
Average injected packet length = 1
Average accepted packet length = 1
Total in-flight flits = 792 (792 measured)
latency change    = 0.00201507
throughput change = 0.000523928
Draining all recorded packets ...
Draining remaining packets ...
Time taken is 3032 cycles
====== Traffic class 0 ======
Overall minimum packet latency = 5 (1 samples)
Overall average packet latency = 7.39182 (1 samples)
Overall maximum packet latency = 23 (1 samples)
Overall minimum network latency = 5 (1 samples)
Overall average network latency = 7.39182 (1 samples)
Overall maximum network latency = 23 (1 samples)
Overall minimum flit latency = 5 (1 samples)
Overall average flit latency = 7.39554 (1 samples)
Overall maximum flit latency = 23 (1 samples)
Overall minimum fragmentation = 0 (1 samples)
Overall average fragmentation = 0 (1 samples)
Overall maximum fragmentation = 0 (1 samples)
Overall minimum injected packet rate = 0.364 (1 samples)
Overall average injected packet rate = 0.400297 (1 samples)
Overall maximum injected packet rate = 0.432 (1 samples)
Overall minimum accepted packet rate = 0.358667 (1 samples)
Overall average accepted packet rate = 0.400122 (1 samples)
Overall maximum accepted packet rate = 0.444667 (1 samples)
Overall minimum injected flit rate = 0.364 (1 samples)
Overall average injected flit rate = 0.400297 (1 samples)
Overall maximum injected flit rate = 0.432 (1 samples)
Overall minimum accepted flit rate = 0.358667 (1 samples)
Overall average accepted flit rate = 0.400122 (1 samples)
Overall maximum accepted flit rate = 0.444667 (1 samples)
Overall average injected packet size = 1 (1 samples)
Overall average accepted packet size = 1 (1 samples)
Overall average hops = 1.49856 (1 samples)
Total run time 6.94208
