BEGIN Configuration File: ./FBF-3.conf
injection_rate = 0.3;
traffic = shuffle;
routing_function = ran_min;
vc_buf_size = 16;
topology = flatfly;
use_noc_latency = 0;
hold_switch_for_packet=0;

c = 4;
k = 8;
n = 2;

x  = 8;
y  = 8;
xr = 2;
yr = 2;

packet_size  = 1;
num_vcs      = 2;
vc_allocator = separable_input_first; 
sw_allocator = separable_input_first;

alloc_iters   = 1;
sample_period = 500;

wait_for_tail_credit = 0;
use_read_write       = 0;

credit_delay   = 2;
routing_delay  = 0;
vc_alloc_delay = 1;
sw_alloc_delay = 1;
st_final_delay = 1;

input_speedup     = 1;
output_speedup    = 1;
internal_speedup  = 2.0;

warmup_periods = 3;
sim_count      = 1;

priority = none;
injection_rate_uses_flits=1;

END Configuration File: ./FBF-3.conf
Number of nodes: 256
Number of routers: 64
 Flat Bufferfly 
 k = 8 n = 2 c = 4
 each switch - total radix =  18
 # of switches = 64
 # of channels = 896
 # of nodes ( size of network ) = 256
0
Class 0:
Minimum packet latency = 5
Average packet latency = 10.8284
Maximum packet latency = 17
Minimum network latency = 5
Average network latency = 10.8284
Maximum network latency = 17
Slowest packet = 1611
Minimum flit latency = 5
Average flit latency = 10.8284
Maximum flit latency = 17
Slowest flit = 1611
Minimum fragmentation = 0
Average fragmentation = 0
Maximum fragmentation = 0
Minimum injected packet rate = 0.238 (at node 172)
Average injected packet rate = 0.299031
Maximum injected packet rate = 0.348 (at node 22)
Minimum accepted packet rate = 0.236 (at node 89)
Average accepted packet rate = 0.292664
Maximum accepted packet rate = 0.348 (at node 223)
Minimum injected flit rate = 0.238 (at node 172)
Average injected flit rate = 0.299031
Maximum injected flit rate = 0.348 (at node 22)
Minimum accepted flit rate = 0.236 (at node 89)
Average accepted flit rate = 0.292664
Maximum accepted flit rate = 0.348 (at node 223)
Average injected packet length = 1
Average accepted packet length = 1
Total in-flight flits = 815 (0 measured)
latency change    = 1
throughput change = 1
0
Class 0:
Minimum packet latency = 5
Average packet latency = 10.8452
Maximum packet latency = 18
Minimum network latency = 5
Average network latency = 10.8452
Maximum network latency = 18
Slowest packet = 61144
Minimum flit latency = 5
Average flit latency = 10.8452
Maximum flit latency = 18
Slowest flit = 61144
Minimum fragmentation = 0
Average fragmentation = 0
Maximum fragmentation = 0
Minimum injected packet rate = 0.262 (at node 203)
Average injected packet rate = 0.299043
Maximum injected packet rate = 0.337 (at node 223)
Minimum accepted packet rate = 0.257 (at node 151)
Average accepted packet rate = 0.29559
Maximum accepted packet rate = 0.336 (at node 191)
Minimum injected flit rate = 0.262 (at node 203)
Average injected flit rate = 0.299043
Maximum injected flit rate = 0.337 (at node 223)
Minimum accepted flit rate = 0.257 (at node 151)
Average accepted flit rate = 0.29559
Maximum accepted flit rate = 0.336 (at node 191)
Average injected packet length = 1
Average accepted packet length = 1
Total in-flight flits = 884 (0 measured)
latency change    = 0.00154448
throughput change = 0.00989811
0
Class 0:
Minimum packet latency = 5
Average packet latency = 10.8868
Maximum packet latency = 19
Minimum network latency = 5
Average network latency = 10.8868
Maximum network latency = 19
Slowest packet = 108382
Minimum flit latency = 5
Average flit latency = 10.8868
Maximum flit latency = 19
Slowest flit = 108382
Minimum fragmentation = 0
Average fragmentation = 0
Maximum fragmentation = 0
Minimum injected packet rate = 0.238 (at node 29)
Average injected packet rate = 0.298266
Maximum injected packet rate = 0.358 (at node 23)
Minimum accepted packet rate = 0.236 (at node 58)
Average accepted packet rate = 0.298883
Maximum accepted packet rate = 0.358 (at node 46)
Minimum injected flit rate = 0.238 (at node 29)
Average injected flit rate = 0.298266
Maximum injected flit rate = 0.358 (at node 23)
Minimum accepted flit rate = 0.236 (at node 58)
Average accepted flit rate = 0.298883
Maximum accepted flit rate = 0.358 (at node 46)
Average injected packet length = 1
Average accepted packet length = 1
Total in-flight flits = 805 (0 measured)
latency change    = 0.00382417
throughput change = 0.0110176
Warmed up ...Time used is 1500 cycles
1
Class 0:
Minimum packet latency = 5
Average packet latency = 10.8821
Maximum packet latency = 18
Minimum network latency = 5
Average network latency = 10.8821
Maximum network latency = 18
Slowest packet = 126770
Minimum flit latency = 5
Average flit latency = 10.8851
Maximum flit latency = 18
Slowest flit = 126770
Minimum fragmentation = 0
Average fragmentation = 0
Maximum fragmentation = 0
Minimum injected packet rate = 0.246 (at node 138)
Average injected packet rate = 0.300984
Maximum injected packet rate = 0.358 (at node 142)
Minimum accepted packet rate = 0.25 (at node 21)
Average accepted packet rate = 0.300594
Maximum accepted packet rate = 0.356 (at node 29)
Minimum injected flit rate = 0.246 (at node 138)
Average injected flit rate = 0.300984
Maximum injected flit rate = 0.358 (at node 142)
Minimum accepted flit rate = 0.25 (at node 21)
Average accepted flit rate = 0.300594
Maximum accepted flit rate = 0.356 (at node 29)
Average injected packet length = 1
Average accepted packet length = 1
Total in-flight flits = 855 (855 measured)
latency change    = 0.000430122
throughput change = 0.00569186
1
Class 0:
Minimum packet latency = 5
Average packet latency = 10.8808
Maximum packet latency = 18
Minimum network latency = 5
Average network latency = 10.8808
Maximum network latency = 18
Slowest packet = 126770
Minimum flit latency = 5
Average flit latency = 10.8823
Maximum flit latency = 18
Slowest flit = 126770
Minimum fragmentation = 0
Average fragmentation = 0
Maximum fragmentation = 0
Minimum injected packet rate = 0.266 (at node 138)
Average injected packet rate = 0.300621
Maximum injected packet rate = 0.334 (at node 30)
Minimum accepted packet rate = 0.266 (at node 21)
Average accepted packet rate = 0.300465
Maximum accepted packet rate = 0.336 (at node 129)
Minimum injected flit rate = 0.266 (at node 138)
Average injected flit rate = 0.300621
Maximum injected flit rate = 0.334 (at node 30)
Minimum accepted flit rate = 0.266 (at node 21)
Average accepted flit rate = 0.300465
Maximum accepted flit rate = 0.336 (at node 129)
Average injected packet length = 1
Average accepted packet length = 1
Total in-flight flits = 845 (845 measured)
latency change    = 0.000123174
throughput change = 0.000429023
1
Class 0:
Minimum packet latency = 5
Average packet latency = 10.8773
Maximum packet latency = 18
Minimum network latency = 5
Average network latency = 10.8773
Maximum network latency = 18
Slowest packet = 126770
Minimum flit latency = 5
Average flit latency = 10.8783
Maximum flit latency = 18
Slowest flit = 126770
Minimum fragmentation = 0
Average fragmentation = 0
Maximum fragmentation = 0
Minimum injected packet rate = 0.268 (at node 39)
Average injected packet rate = 0.300388
Maximum injected packet rate = 0.336 (at node 142)
Minimum accepted packet rate = 0.268 (at node 78)
Average accepted packet rate = 0.300187
Maximum accepted packet rate = 0.334667 (at node 29)
Minimum injected flit rate = 0.268 (at node 39)
Average injected flit rate = 0.300388
Maximum injected flit rate = 0.336 (at node 142)
Minimum accepted flit rate = 0.268 (at node 78)
Average accepted flit rate = 0.300187
Maximum accepted flit rate = 0.334667 (at node 29)
Average injected packet length = 1
Average accepted packet length = 1
Total in-flight flits = 882 (882 measured)
latency change    = 0.000324649
throughput change = 0.000923902
Draining all recorded packets ...
Draining remaining packets ...
Time taken is 3035 cycles
====== Traffic class 0 ======
Overall minimum packet latency = 5 (1 samples)
Overall average packet latency = 10.8808 (1 samples)
Overall maximum packet latency = 18 (1 samples)
Overall minimum network latency = 5 (1 samples)
Overall average network latency = 10.8808 (1 samples)
Overall maximum network latency = 18 (1 samples)
Overall minimum flit latency = 5 (1 samples)
Overall average flit latency = 10.882 (1 samples)
Overall maximum flit latency = 18 (1 samples)
Overall minimum fragmentation = 0 (1 samples)
Overall average fragmentation = 0 (1 samples)
Overall maximum fragmentation = 0 (1 samples)
Overall minimum injected packet rate = 0.268 (1 samples)
Overall average injected packet rate = 0.300388 (1 samples)
Overall maximum injected packet rate = 0.336 (1 samples)
Overall minimum accepted packet rate = 0.268 (1 samples)
Overall average accepted packet rate = 0.300187 (1 samples)
Overall maximum accepted packet rate = 0.334667 (1 samples)
Overall minimum injected flit rate = 0.268 (1 samples)
Overall average injected flit rate = 0.300388 (1 samples)
Overall maximum injected flit rate = 0.336 (1 samples)
Overall minimum accepted flit rate = 0.268 (1 samples)
Overall average accepted flit rate = 0.300187 (1 samples)
Overall maximum accepted flit rate = 0.334667 (1 samples)
Overall average injected packet size = 1 (1 samples)
Overall average accepted packet size = 1 (1 samples)
Overall average hops = 2.75015 (1 samples)
Total run time 8.36842
