BEGIN Configuration File: ./FBF-3.conf
injection_rate = 0.2;
traffic = shuffle;
routing_function = valiant;
vc_buf_size = 16;
topology = flatfly;
use_noc_latency = 0;
hold_switch_for_packet=0;

c = 4;
k = 8;
n = 2;

x  = 8;
y  = 8;
xr = 2;
yr = 2;

packet_size  = 1;
num_vcs      = 2;
vc_allocator = separable_input_first; 
sw_allocator = separable_input_first;

alloc_iters   = 1;
sample_period = 500;

wait_for_tail_credit = 0;
use_read_write       = 0;

credit_delay   = 2;
routing_delay  = 0;
vc_alloc_delay = 1;
sw_alloc_delay = 1;
st_final_delay = 1;

input_speedup     = 1;
output_speedup    = 1;
internal_speedup  = 2.0;

warmup_periods = 3;
sim_count      = 1;

priority = none;
injection_rate_uses_flits=1;

END Configuration File: ./FBF-3.conf
Number of nodes: 256
Number of routers: 64
 Flat Bufferfly 
 k = 8 n = 2 c = 4
 each switch - total radix =  18
 # of switches = 64
 # of channels = 896
 # of nodes ( size of network ) = 256
0
Class 0:
Minimum packet latency = 5
Average packet latency = 15.7023
Maximum packet latency = 23
Minimum network latency = 5
Average network latency = 15.7023
Maximum network latency = 23
Slowest packet = 1500
Minimum flit latency = 5
Average flit latency = 15.7023
Maximum flit latency = 23
Slowest flit = 1500
Minimum fragmentation = 0
Average fragmentation = 0
Maximum fragmentation = 0
Minimum injected packet rate = 0.158 (at node 1)
Average injected packet rate = 0.198797
Maximum injected packet rate = 0.254 (at node 239)
Minimum accepted packet rate = 0.148 (at node 2)
Average accepted packet rate = 0.192586
Maximum accepted packet rate = 0.25 (at node 223)
Minimum injected flit rate = 0.158 (at node 1)
Average injected flit rate = 0.198797
Maximum injected flit rate = 0.254 (at node 239)
Minimum accepted flit rate = 0.148 (at node 2)
Average accepted flit rate = 0.192586
Maximum accepted flit rate = 0.25 (at node 223)
Average injected packet length = 1
Average accepted packet length = 1
Total in-flight flits = 795 (0 measured)
latency change    = 1
throughput change = 1
0
Class 0:
Minimum packet latency = 5
Average packet latency = 15.7175
Maximum packet latency = 24
Minimum network latency = 5
Average network latency = 15.7175
Maximum network latency = 24
Slowest packet = 26956
Minimum flit latency = 5
Average flit latency = 15.7175
Maximum flit latency = 24
Slowest flit = 26956
Minimum fragmentation = 0
Average fragmentation = 0
Maximum fragmentation = 0
Minimum injected packet rate = 0.17 (at node 104)
Average injected packet rate = 0.199156
Maximum injected packet rate = 0.232 (at node 22)
Minimum accepted packet rate = 0.165 (at node 208)
Average accepted packet rate = 0.195867
Maximum accepted packet rate = 0.229 (at node 223)
Minimum injected flit rate = 0.17 (at node 104)
Average injected flit rate = 0.199156
Maximum injected flit rate = 0.232 (at node 22)
Minimum accepted flit rate = 0.165 (at node 208)
Average accepted flit rate = 0.195867
Maximum accepted flit rate = 0.229 (at node 223)
Average injected packet length = 1
Average accepted packet length = 1
Total in-flight flits = 842 (0 measured)
latency change    = 0.000965711
throughput change = 0.0167524
0
Class 0:
Minimum packet latency = 5
Average packet latency = 15.7738
Maximum packet latency = 24
Minimum network latency = 5
Average network latency = 15.7738
Maximum network latency = 24
Slowest packet = 53523
Minimum flit latency = 5
Average flit latency = 15.7738
Maximum flit latency = 24
Slowest flit = 53523
Minimum fragmentation = 0
Average fragmentation = 0
Maximum fragmentation = 0
Minimum injected packet rate = 0.148 (at node 29)
Average injected packet rate = 0.199695
Maximum injected packet rate = 0.264 (at node 39)
Minimum accepted packet rate = 0.142 (at node 76)
Average accepted packet rate = 0.200164
Maximum accepted packet rate = 0.264 (at node 78)
Minimum injected flit rate = 0.148 (at node 29)
Average injected flit rate = 0.199695
Maximum injected flit rate = 0.264 (at node 39)
Minimum accepted flit rate = 0.142 (at node 76)
Average accepted flit rate = 0.200164
Maximum accepted flit rate = 0.264 (at node 78)
Average injected packet length = 1
Average accepted packet length = 1
Total in-flight flits = 782 (0 measured)
latency change    = 0.00357275
throughput change = 0.0214668
Warmed up ...Time used is 1500 cycles
1
Class 0:
Minimum packet latency = 5
Average packet latency = 15.7299
Maximum packet latency = 24
Minimum network latency = 5
Average network latency = 15.7299
Maximum network latency = 24
Slowest packet = 77908
Minimum flit latency = 5
Average flit latency = 15.7371
Maximum flit latency = 24
Slowest flit = 77908
Minimum fragmentation = 0
Average fragmentation = 0
Maximum fragmentation = 0
Minimum injected packet rate = 0.142 (at node 174)
Average injected packet rate = 0.1995
Maximum injected packet rate = 0.252 (at node 122)
Minimum accepted packet rate = 0.148 (at node 93)
Average accepted packet rate = 0.199156
Maximum accepted packet rate = 0.258 (at node 244)
Minimum injected flit rate = 0.142 (at node 174)
Average injected flit rate = 0.1995
Maximum injected flit rate = 0.252 (at node 122)
Minimum accepted flit rate = 0.148 (at node 93)
Average accepted flit rate = 0.199156
Maximum accepted flit rate = 0.258 (at node 244)
Average injected packet length = 1
Average accepted packet length = 1
Total in-flight flits = 826 (826 measured)
latency change    = 0.00279159
throughput change = 0.00506041
1
Class 0:
Minimum packet latency = 5
Average packet latency = 15.7523
Maximum packet latency = 24
Minimum network latency = 5
Average network latency = 15.7523
Maximum network latency = 24
Slowest packet = 77908
Minimum flit latency = 5
Average flit latency = 15.7555
Maximum flit latency = 24
Slowest flit = 77908
Minimum fragmentation = 0
Average fragmentation = 0
Maximum fragmentation = 0
Minimum injected packet rate = 0.165 (at node 191)
Average injected packet rate = 0.200563
Maximum injected packet rate = 0.24 (at node 53)
Minimum accepted packet rate = 0.166 (at node 122)
Average accepted packet rate = 0.200336
Maximum accepted packet rate = 0.24 (at node 106)
Minimum injected flit rate = 0.165 (at node 191)
Average injected flit rate = 0.200563
Maximum injected flit rate = 0.24 (at node 53)
Minimum accepted flit rate = 0.166 (at node 122)
Average accepted flit rate = 0.200336
Maximum accepted flit rate = 0.24 (at node 106)
Average injected packet length = 1
Average accepted packet length = 1
Total in-flight flits = 840 (840 measured)
latency change    = 0.00142012
throughput change = 0.00588855
1
Class 0:
Minimum packet latency = 5
Average packet latency = 15.7468
Maximum packet latency = 24
Minimum network latency = 5
Average network latency = 15.7468
Maximum network latency = 24
Slowest packet = 77908
Minimum flit latency = 5
Average flit latency = 15.749
Maximum flit latency = 24
Slowest flit = 77908
Minimum fragmentation = 0
Average fragmentation = 0
Maximum fragmentation = 0
Minimum injected packet rate = 0.169333 (at node 174)
Average injected packet rate = 0.200125
Maximum injected packet rate = 0.230667 (at node 163)
Minimum accepted packet rate = 0.166667 (at node 93)
Average accepted packet rate = 0.200023
Maximum accepted packet rate = 0.228 (at node 26)
Minimum injected flit rate = 0.169333 (at node 174)
Average injected flit rate = 0.200125
Maximum injected flit rate = 0.230667 (at node 163)
Minimum accepted flit rate = 0.166667 (at node 93)
Average accepted flit rate = 0.200023
Maximum accepted flit rate = 0.228 (at node 26)
Average injected packet length = 1
Average accepted packet length = 1
Total in-flight flits = 821 (821 measured)
latency change    = 0.00034946
throughput change = 0.00156232
Draining all recorded packets ...
Draining remaining packets ...
Time taken is 3042 cycles
====== Traffic class 0 ======
Overall minimum packet latency = 5 (1 samples)
Overall average packet latency = 15.7527 (1 samples)
Overall maximum packet latency = 24 (1 samples)
Overall minimum network latency = 5 (1 samples)
Overall average network latency = 15.7527 (1 samples)
Overall maximum network latency = 24 (1 samples)
Overall minimum flit latency = 5 (1 samples)
Overall average flit latency = 15.7548 (1 samples)
Overall maximum flit latency = 24 (1 samples)
Overall minimum fragmentation = 0 (1 samples)
Overall average fragmentation = 0 (1 samples)
Overall maximum fragmentation = 0 (1 samples)
Overall minimum injected packet rate = 0.169333 (1 samples)
Overall average injected packet rate = 0.200125 (1 samples)
Overall maximum injected packet rate = 0.230667 (1 samples)
Overall minimum accepted packet rate = 0.166667 (1 samples)
Overall average accepted packet rate = 0.200023 (1 samples)
Overall maximum accepted packet rate = 0.228 (1 samples)
Overall minimum injected flit rate = 0.169333 (1 samples)
Overall average injected flit rate = 0.200125 (1 samples)
Overall maximum injected flit rate = 0.230667 (1 samples)
Overall minimum accepted flit rate = 0.166667 (1 samples)
Overall average accepted flit rate = 0.200023 (1 samples)
Overall maximum accepted flit rate = 0.228 (1 samples)
Overall average injected packet size = 1 (1 samples)
Overall average accepted packet size = 1 (1 samples)
Overall average hops = 4.42466 (1 samples)
Total run time 7.81433
