BEGIN Configuration File: ./FBF-3.conf
injection_rate = 0.2;
traffic = uniform;
routing_function = ugal;
vc_buf_size = 16;
topology = flatfly;
use_noc_latency = 0;
hold_switch_for_packet=0;

c = 4;
k = 8;
n = 2;

x  = 8;
y  = 8;
xr = 2;
yr = 2;

packet_size  = 1;
num_vcs      = 2;
vc_allocator = separable_input_first; 
sw_allocator = separable_input_first;

alloc_iters   = 1;
sample_period = 500;

wait_for_tail_credit = 0;
use_read_write       = 0;

credit_delay   = 2;
routing_delay  = 0;
vc_alloc_delay = 1;
sw_alloc_delay = 1;
st_final_delay = 1;

input_speedup     = 1;
output_speedup    = 1;
internal_speedup  = 2.0;

warmup_periods = 3;
sim_count      = 1;

priority = none;
injection_rate_uses_flits=1;

END Configuration File: ./FBF-3.conf
Number of nodes: 256
Number of routers: 64
 Flat Bufferfly 
 k = 8 n = 2 c = 4
 each switch - total radix =  18
 # of switches = 64
 # of channels = 896
 # of nodes ( size of network ) = 256
0
Class 0:
Minimum packet latency = 5
Average packet latency = 10.7087
Maximum packet latency = 20
Minimum network latency = 5
Average network latency = 10.7087
Maximum network latency = 20
Slowest packet = 669
Minimum flit latency = 5
Average flit latency = 10.7087
Maximum flit latency = 20
Slowest flit = 669
Minimum fragmentation = 0
Average fragmentation = 0
Maximum fragmentation = 0
Minimum injected packet rate = 0.158 (at node 1)
Average injected packet rate = 0.198797
Maximum injected packet rate = 0.254 (at node 239)
Minimum accepted packet rate = 0.146 (at node 17)
Average accepted packet rate = 0.194734
Maximum accepted packet rate = 0.258 (at node 57)
Minimum injected flit rate = 0.158 (at node 1)
Average injected flit rate = 0.198797
Maximum injected flit rate = 0.254 (at node 239)
Minimum accepted flit rate = 0.146 (at node 17)
Average accepted flit rate = 0.194734
Maximum accepted flit rate = 0.258 (at node 57)
Average injected packet length = 1
Average accepted packet length = 1
Total in-flight flits = 520 (0 measured)
latency change    = 1
throughput change = 1
0
Class 0:
Minimum packet latency = 5
Average packet latency = 10.7189
Maximum packet latency = 20
Minimum network latency = 5
Average network latency = 10.7189
Maximum network latency = 20
Slowest packet = 669
Minimum flit latency = 5
Average flit latency = 10.7189
Maximum flit latency = 20
Slowest flit = 669
Minimum fragmentation = 0
Average fragmentation = 0
Maximum fragmentation = 0
Minimum injected packet rate = 0.17 (at node 104)
Average injected packet rate = 0.199156
Maximum injected packet rate = 0.232 (at node 22)
Minimum accepted packet rate = 0.154 (at node 100)
Average accepted packet rate = 0.196934
Maximum accepted packet rate = 0.235 (at node 87)
Minimum injected flit rate = 0.17 (at node 104)
Average injected flit rate = 0.199156
Maximum injected flit rate = 0.232 (at node 22)
Minimum accepted flit rate = 0.154 (at node 100)
Average accepted flit rate = 0.196934
Maximum accepted flit rate = 0.235 (at node 87)
Average injected packet length = 1
Average accepted packet length = 1
Total in-flight flits = 569 (0 measured)
latency change    = 0.000945574
throughput change = 0.0111673
0
Class 0:
Minimum packet latency = 5
Average packet latency = 10.7196
Maximum packet latency = 21
Minimum network latency = 5
Average network latency = 10.7196
Maximum network latency = 21
Slowest packet = 72426
Minimum flit latency = 5
Average flit latency = 10.7196
Maximum flit latency = 21
Slowest flit = 72426
Minimum fragmentation = 0
Average fragmentation = 0
Maximum fragmentation = 0
Minimum injected packet rate = 0.148 (at node 29)
Average injected packet rate = 0.199695
Maximum injected packet rate = 0.264 (at node 39)
Minimum accepted packet rate = 0.156 (at node 1)
Average accepted packet rate = 0.199813
Maximum accepted packet rate = 0.254 (at node 135)
Minimum injected flit rate = 0.148 (at node 29)
Average injected flit rate = 0.199695
Maximum injected flit rate = 0.264 (at node 39)
Minimum accepted flit rate = 0.156 (at node 1)
Average accepted flit rate = 0.199813
Maximum accepted flit rate = 0.254 (at node 135)
Average injected packet length = 1
Average accepted packet length = 1
Total in-flight flits = 554 (0 measured)
latency change    = 6.96485e-05
throughput change = 0.014408
Warmed up ...Time used is 1500 cycles
1
Class 0:
Minimum packet latency = 5
Average packet latency = 10.7421
Maximum packet latency = 21
Minimum network latency = 5
Average network latency = 10.7421
Maximum network latency = 21
Slowest packet = 94235
Minimum flit latency = 5
Average flit latency = 10.7487
Maximum flit latency = 21
Slowest flit = 94235
Minimum fragmentation = 0
Average fragmentation = 0
Maximum fragmentation = 0
Minimum injected packet rate = 0.142 (at node 174)
Average injected packet rate = 0.1995
Maximum injected packet rate = 0.252 (at node 122)
Minimum accepted packet rate = 0.146 (at node 34)
Average accepted packet rate = 0.199391
Maximum accepted packet rate = 0.258 (at node 246)
Minimum injected flit rate = 0.142 (at node 174)
Average injected flit rate = 0.1995
Maximum injected flit rate = 0.252 (at node 122)
Minimum accepted flit rate = 0.146 (at node 34)
Average accepted flit rate = 0.199391
Maximum accepted flit rate = 0.258 (at node 246)
Average injected packet length = 1
Average accepted packet length = 1
Total in-flight flits = 568 (568 measured)
latency change    = 0.00209735
throughput change = 0.00211582
1
Class 0:
Minimum packet latency = 5
Average packet latency = 10.7326
Maximum packet latency = 21
Minimum network latency = 5
Average network latency = 10.7326
Maximum network latency = 21
Slowest packet = 94235
Minimum flit latency = 5
Average flit latency = 10.736
Maximum flit latency = 21
Slowest flit = 94235
Minimum fragmentation = 0
Average fragmentation = 0
Maximum fragmentation = 0
Minimum injected packet rate = 0.165 (at node 191)
Average injected packet rate = 0.200563
Maximum injected packet rate = 0.24 (at node 53)
Minimum accepted packet rate = 0.165 (at node 19)
Average accepted packet rate = 0.200516
Maximum accepted packet rate = 0.246 (at node 183)
Minimum injected flit rate = 0.165 (at node 191)
Average injected flit rate = 0.200563
Maximum injected flit rate = 0.24 (at node 53)
Minimum accepted flit rate = 0.165 (at node 19)
Average accepted flit rate = 0.200516
Maximum accepted flit rate = 0.246 (at node 183)
Average injected packet length = 1
Average accepted packet length = 1
Total in-flight flits = 566 (566 measured)
latency change    = 0.000886066
throughput change = 0.00561054
1
Class 0:
Minimum packet latency = 5
Average packet latency = 10.7343
Maximum packet latency = 21
Minimum network latency = 5
Average network latency = 10.7343
Maximum network latency = 21
Slowest packet = 94235
Minimum flit latency = 5
Average flit latency = 10.7365
Maximum flit latency = 21
Slowest flit = 94235
Minimum fragmentation = 0
Average fragmentation = 0
Maximum fragmentation = 0
Minimum injected packet rate = 0.169333 (at node 174)
Average injected packet rate = 0.200125
Maximum injected packet rate = 0.230667 (at node 163)
Minimum accepted packet rate = 0.168 (at node 70)
Average accepted packet rate = 0.200089
Maximum accepted packet rate = 0.234667 (at node 183)
Minimum injected flit rate = 0.169333 (at node 174)
Average injected flit rate = 0.200125
Maximum injected flit rate = 0.230667 (at node 163)
Minimum accepted flit rate = 0.168 (at node 70)
Average accepted flit rate = 0.200089
Maximum accepted flit rate = 0.234667 (at node 183)
Average injected packet length = 1
Average accepted packet length = 1
Total in-flight flits = 568 (568 measured)
latency change    = 0.00015414
throughput change = 0.00213447
Draining all recorded packets ...
Draining remaining packets ...
Time taken is 3040 cycles
====== Traffic class 0 ======
Overall minimum packet latency = 5 (1 samples)
Overall average packet latency = 10.7372 (1 samples)
Overall maximum packet latency = 21 (1 samples)
Overall minimum network latency = 5 (1 samples)
Overall average network latency = 10.7372 (1 samples)
Overall maximum network latency = 21 (1 samples)
Overall minimum flit latency = 5 (1 samples)
Overall average flit latency = 10.7392 (1 samples)
Overall maximum flit latency = 21 (1 samples)
Overall minimum fragmentation = 0 (1 samples)
Overall average fragmentation = 0 (1 samples)
Overall maximum fragmentation = 0 (1 samples)
Overall minimum injected packet rate = 0.169333 (1 samples)
Overall average injected packet rate = 0.200125 (1 samples)
Overall maximum injected packet rate = 0.230667 (1 samples)
Overall minimum accepted packet rate = 0.168 (1 samples)
Overall average accepted packet rate = 0.200089 (1 samples)
Overall maximum accepted packet rate = 0.234667 (1 samples)
Overall minimum injected flit rate = 0.169333 (1 samples)
Overall average injected flit rate = 0.200125 (1 samples)
Overall maximum injected flit rate = 0.230667 (1 samples)
Overall minimum accepted flit rate = 0.168 (1 samples)
Overall average accepted flit rate = 0.200089 (1 samples)
Overall maximum accepted flit rate = 0.234667 (1 samples)
Overall average injected packet size = 1 (1 samples)
Overall average accepted packet size = 1 (1 samples)
Overall average hops = 2.84102 (1 samples)
Total run time 5.89207
