BEGIN Configuration File: ./FBF-3.conf
injection_rate = 0.5;
traffic = bitrev;
routing_function = ugal;
vc_buf_size = 16;
topology = flatfly;
use_noc_latency = 0;
hold_switch_for_packet=0;

c = 4;
k = 8;
n = 2;

x  = 8;
y  = 8;
xr = 2;
yr = 2;

packet_size  = 1;
num_vcs      = 2;
vc_allocator = separable_input_first; 
sw_allocator = separable_input_first;

alloc_iters   = 1;
sample_period = 500;

wait_for_tail_credit = 0;
use_read_write       = 0;

credit_delay   = 2;
routing_delay  = 0;
vc_alloc_delay = 1;
sw_alloc_delay = 1;
st_final_delay = 1;

input_speedup     = 1;
output_speedup    = 1;
internal_speedup  = 2.0;

warmup_periods = 3;
sim_count      = 1;

priority = none;
injection_rate_uses_flits=1;

END Configuration File: ./FBF-3.conf
Number of nodes: 256
Number of routers: 64
 Flat Bufferfly 
 k = 8 n = 2 c = 4
 each switch - total radix =  18
 # of switches = 64
 # of channels = 896
 # of nodes ( size of network ) = 256
0
Class 0:
Minimum packet latency = 5
Average packet latency = 14.3007
Maximum packet latency = 43
Minimum network latency = 5
Average network latency = 14.3007
Maximum network latency = 43
Slowest packet = 17864
Minimum flit latency = 5
Average flit latency = 14.3007
Maximum flit latency = 43
Slowest flit = 17864
Minimum fragmentation = 0
Average fragmentation = 0
Maximum fragmentation = 0
Minimum injected packet rate = 0.426 (at node 110)
Average injected packet rate = 0.499609
Maximum injected packet rate = 0.562 (at node 22)
Minimum accepted packet rate = 0.416 (at node 118)
Average accepted packet rate = 0.485164
Maximum accepted packet rate = 0.548 (at node 104)
Minimum injected flit rate = 0.426 (at node 110)
Average injected flit rate = 0.499609
Maximum injected flit rate = 0.562 (at node 22)
Minimum accepted flit rate = 0.416 (at node 118)
Average accepted flit rate = 0.485164
Maximum accepted flit rate = 0.548 (at node 104)
Average injected packet length = 1
Average accepted packet length = 1
Total in-flight flits = 1849 (0 measured)
latency change    = 1
throughput change = 1
0
Class 0:
Minimum packet latency = 5
Average packet latency = 14.29
Maximum packet latency = 43
Minimum network latency = 5
Average network latency = 14.29
Maximum network latency = 43
Slowest packet = 17864
Minimum flit latency = 5
Average flit latency = 14.29
Maximum flit latency = 43
Slowest flit = 17864
Minimum fragmentation = 0
Average fragmentation = 0
Maximum fragmentation = 0
Minimum injected packet rate = 0.448 (at node 173)
Average injected packet rate = 0.499969
Maximum injected packet rate = 0.541 (at node 74)
Minimum accepted packet rate = 0.44 (at node 181)
Average accepted packet rate = 0.492566
Maximum accepted packet rate = 0.536 (at node 82)
Minimum injected flit rate = 0.448 (at node 173)
Average injected flit rate = 0.499969
Maximum injected flit rate = 0.541 (at node 74)
Minimum accepted flit rate = 0.44 (at node 181)
Average accepted flit rate = 0.492566
Maximum accepted flit rate = 0.536 (at node 82)
Average injected packet length = 1
Average accepted packet length = 1
Total in-flight flits = 1895 (0 measured)
latency change    = 0.000748011
throughput change = 0.0150281
0
Class 0:
Minimum packet latency = 5
Average packet latency = 14.3978
Maximum packet latency = 44
Minimum network latency = 5
Average network latency = 14.3978
Maximum network latency = 44
Slowest packet = 147701
Minimum flit latency = 5
Average flit latency = 14.3978
Maximum flit latency = 44
Slowest flit = 147701
Minimum fragmentation = 0
Average fragmentation = 0
Maximum fragmentation = 0
Minimum injected packet rate = 0.444 (at node 152)
Average injected packet rate = 0.500117
Maximum injected packet rate = 0.562 (at node 51)
Minimum accepted packet rate = 0.448 (at node 25)
Average accepted packet rate = 0.500672
Maximum accepted packet rate = 0.558 (at node 204)
Minimum injected flit rate = 0.444 (at node 152)
Average injected flit rate = 0.500117
Maximum injected flit rate = 0.562 (at node 51)
Minimum accepted flit rate = 0.448 (at node 25)
Average accepted flit rate = 0.500672
Maximum accepted flit rate = 0.558 (at node 204)
Average injected packet length = 1
Average accepted packet length = 1
Total in-flight flits = 1824 (0 measured)
latency change    = 0.00748253
throughput change = 0.0161892
Warmed up ...Time used is 1500 cycles
1
Class 0:
Minimum packet latency = 5
Average packet latency = 14.3083
Maximum packet latency = 39
Minimum network latency = 5
Average network latency = 14.3083
Maximum network latency = 39
Slowest packet = 194521
Minimum flit latency = 5
Average flit latency = 14.3549
Maximum flit latency = 39
Slowest flit = 194521
Minimum fragmentation = 0
Average fragmentation = 0
Maximum fragmentation = 0
Minimum injected packet rate = 0.44 (at node 50)
Average injected packet rate = 0.501266
Maximum injected packet rate = 0.562 (at node 115)
Minimum accepted packet rate = 0.44 (at node 76)
Average accepted packet rate = 0.501164
Maximum accepted packet rate = 0.56 (at node 234)
Minimum injected flit rate = 0.44 (at node 50)
Average injected flit rate = 0.501266
Maximum injected flit rate = 0.562 (at node 115)
Minimum accepted flit rate = 0.44 (at node 76)
Average accepted flit rate = 0.501164
Maximum accepted flit rate = 0.56 (at node 234)
Average injected packet length = 1
Average accepted packet length = 1
Total in-flight flits = 1837 (1837 measured)
latency change    = 0.00625225
throughput change = 0.000982089
1
Class 0:
Minimum packet latency = 5
Average packet latency = 14.3404
Maximum packet latency = 44
Minimum network latency = 5
Average network latency = 14.3404
Maximum network latency = 44
Slowest packet = 266650
Minimum flit latency = 5
Average flit latency = 14.3633
Maximum flit latency = 44
Slowest flit = 266650
Minimum fragmentation = 0
Average fragmentation = 0
Maximum fragmentation = 0
Minimum injected packet rate = 0.46 (at node 50)
Average injected packet rate = 0.500695
Maximum injected packet rate = 0.546 (at node 115)
Minimum accepted packet rate = 0.458 (at node 62)
Average accepted packet rate = 0.500926
Maximum accepted packet rate = 0.548 (at node 206)
Minimum injected flit rate = 0.46 (at node 50)
Average injected flit rate = 0.500695
Maximum injected flit rate = 0.546 (at node 115)
Minimum accepted flit rate = 0.458 (at node 62)
Average accepted flit rate = 0.500926
Maximum accepted flit rate = 0.548 (at node 206)
Average injected packet length = 1
Average accepted packet length = 1
Total in-flight flits = 1765 (1765 measured)
latency change    = 0.00224096
throughput change = 0.000475682
1
Class 0:
Minimum packet latency = 5
Average packet latency = 14.3285
Maximum packet latency = 44
Minimum network latency = 5
Average network latency = 14.3285
Maximum network latency = 44
Slowest packet = 266650
Minimum flit latency = 5
Average flit latency = 14.3438
Maximum flit latency = 44
Slowest flit = 266650
Minimum fragmentation = 0
Average fragmentation = 0
Maximum fragmentation = 0
Minimum injected packet rate = 0.465333 (at node 252)
Average injected packet rate = 0.500591
Maximum injected packet rate = 0.534 (at node 42)
Minimum accepted packet rate = 0.464 (at node 63)
Average accepted packet rate = 0.500424
Maximum accepted packet rate = 0.534 (at node 206)
Minimum injected flit rate = 0.465333 (at node 252)
Average injected flit rate = 0.500591
Maximum injected flit rate = 0.534 (at node 42)
Minimum accepted flit rate = 0.464 (at node 63)
Average accepted flit rate = 0.500424
Maximum accepted flit rate = 0.534 (at node 206)
Average injected packet length = 1
Average accepted packet length = 1
Total in-flight flits = 1888 (1888 measured)
latency change    = 0.000834882
throughput change = 0.00100175
Draining all recorded packets ...
Draining remaining packets ...
Time taken is 3057 cycles
====== Traffic class 0 ======
Overall minimum packet latency = 5 (1 samples)
Overall average packet latency = 14.3461 (1 samples)
Overall maximum packet latency = 44 (1 samples)
Overall minimum network latency = 5 (1 samples)
Overall average network latency = 14.3461 (1 samples)
Overall maximum network latency = 44 (1 samples)
Overall minimum flit latency = 5 (1 samples)
Overall average flit latency = 14.3614 (1 samples)
Overall maximum flit latency = 44 (1 samples)
Overall minimum fragmentation = 0 (1 samples)
Overall average fragmentation = 0 (1 samples)
Overall maximum fragmentation = 0 (1 samples)
Overall minimum injected packet rate = 0.465333 (1 samples)
Overall average injected packet rate = 0.500591 (1 samples)
Overall maximum injected packet rate = 0.534 (1 samples)
Overall minimum accepted packet rate = 0.464 (1 samples)
Overall average accepted packet rate = 0.500424 (1 samples)
Overall maximum accepted packet rate = 0.534 (1 samples)
Overall minimum injected flit rate = 0.465333 (1 samples)
Overall average injected flit rate = 0.500591 (1 samples)
Overall maximum injected flit rate = 0.534 (1 samples)
Overall minimum accepted flit rate = 0.464 (1 samples)
Overall average accepted flit rate = 0.500424 (1 samples)
Overall maximum accepted flit rate = 0.534 (1 samples)
Overall average injected packet size = 1 (1 samples)
Overall average accepted packet size = 1 (1 samples)
Overall average hops = 3.39967 (1 samples)
Total run time 14.8432
