BEGIN Configuration File: ./FBF-3.conf
injection_rate = 0.1;
traffic = shuffle;
routing_function = ugal;
vc_buf_size = 16;
topology = flatfly;
use_noc_latency = 0;
hold_switch_for_packet=0;

c = 4;
k = 8;
n = 2;

x  = 8;
y  = 8;
xr = 2;
yr = 2;

packet_size  = 1;
num_vcs      = 2;
vc_allocator = separable_input_first; 
sw_allocator = separable_input_first;

alloc_iters   = 1;
sample_period = 500;

wait_for_tail_credit = 0;
use_read_write       = 0;

credit_delay   = 2;
routing_delay  = 0;
vc_alloc_delay = 1;
sw_alloc_delay = 1;
st_final_delay = 1;

input_speedup     = 1;
output_speedup    = 1;
internal_speedup  = 2.0;

warmup_periods = 3;
sim_count      = 1;

priority = none;
injection_rate_uses_flits=1;

END Configuration File: ./FBF-3.conf
Number of nodes: 256
Number of routers: 64
 Flat Bufferfly 
 k = 8 n = 2 c = 4
 each switch - total radix =  18
 # of switches = 64
 # of channels = 896
 # of nodes ( size of network ) = 256
0
Class 0:
Minimum packet latency = 5
Average packet latency = 11.2478
Maximum packet latency = 19
Minimum network latency = 5
Average network latency = 11.2478
Maximum network latency = 19
Slowest packet = 1556
Minimum flit latency = 5
Average flit latency = 11.2478
Maximum flit latency = 19
Slowest flit = 1556
Minimum fragmentation = 0
Average fragmentation = 0
Maximum fragmentation = 0
Minimum injected packet rate = 0.066 (at node 9)
Average injected packet rate = 0.0990625
Maximum injected packet rate = 0.142 (at node 220)
Minimum accepted packet rate = 0.064 (at node 18)
Average accepted packet rate = 0.0969922
Maximum accepted packet rate = 0.14 (at node 185)
Minimum injected flit rate = 0.066 (at node 9)
Average injected flit rate = 0.0990625
Maximum injected flit rate = 0.142 (at node 220)
Minimum accepted flit rate = 0.064 (at node 18)
Average accepted flit rate = 0.0969922
Maximum accepted flit rate = 0.14 (at node 185)
Average injected packet length = 1
Average accepted packet length = 1
Total in-flight flits = 265 (0 measured)
latency change    = 1
throughput change = 1
0
Class 0:
Minimum packet latency = 5
Average packet latency = 11.2533
Maximum packet latency = 20
Minimum network latency = 5
Average network latency = 11.2533
Maximum network latency = 20
Slowest packet = 15010
Minimum flit latency = 5
Average flit latency = 11.2533
Maximum flit latency = 20
Slowest flit = 15010
Minimum fragmentation = 0
Average fragmentation = 0
Maximum fragmentation = 0
Minimum injected packet rate = 0.072 (at node 166)
Average injected packet rate = 0.0991563
Maximum injected packet rate = 0.13 (at node 22)
Minimum accepted packet rate = 0.072 (at node 77)
Average accepted packet rate = 0.0979844
Maximum accepted packet rate = 0.127 (at node 44)
Minimum injected flit rate = 0.072 (at node 166)
Average injected flit rate = 0.0991563
Maximum injected flit rate = 0.13 (at node 22)
Minimum accepted flit rate = 0.072 (at node 77)
Average accepted flit rate = 0.0979844
Maximum accepted flit rate = 0.127 (at node 44)
Average injected packet length = 1
Average accepted packet length = 1
Total in-flight flits = 300 (0 measured)
latency change    = 0.000481964
throughput change = 0.010126
0
Class 0:
Minimum packet latency = 5
Average packet latency = 11.3144
Maximum packet latency = 20
Minimum network latency = 5
Average network latency = 11.3144
Maximum network latency = 20
Slowest packet = 32896
Minimum flit latency = 5
Average flit latency = 11.3144
Maximum flit latency = 20
Slowest flit = 32896
Minimum fragmentation = 0
Average fragmentation = 0
Maximum fragmentation = 0
Minimum injected packet rate = 0.064 (at node 15)
Average injected packet rate = 0.0995859
Maximum injected packet rate = 0.142 (at node 21)
Minimum accepted packet rate = 0.062 (at node 30)
Average accepted packet rate = 0.0996797
Maximum accepted packet rate = 0.14 (at node 78)
Minimum injected flit rate = 0.064 (at node 15)
Average injected flit rate = 0.0995859
Maximum injected flit rate = 0.142 (at node 21)
Minimum accepted flit rate = 0.062 (at node 30)
Average accepted flit rate = 0.0996797
Maximum accepted flit rate = 0.14 (at node 78)
Average injected packet length = 1
Average accepted packet length = 1
Total in-flight flits = 288 (0 measured)
latency change    = 0.00539998
throughput change = 0.0170076
Warmed up ...Time used is 1500 cycles
1
Class 0:
Minimum packet latency = 5
Average packet latency = 11.2482
Maximum packet latency = 19
Minimum network latency = 5
Average network latency = 11.2482
Maximum network latency = 19
Slowest packet = 39160
Minimum flit latency = 5
Average flit latency = 11.261
Maximum flit latency = 19
Slowest flit = 39160
Minimum fragmentation = 0
Average fragmentation = 0
Maximum fragmentation = 0
Minimum injected packet rate = 0.058 (at node 40)
Average injected packet rate = 0.0990859
Maximum injected packet rate = 0.15 (at node 87)
Minimum accepted packet rate = 0.06 (at node 80)
Average accepted packet rate = 0.0990937
Maximum accepted packet rate = 0.148 (at node 29)
Minimum injected flit rate = 0.058 (at node 40)
Average injected flit rate = 0.0990859
Maximum injected flit rate = 0.15 (at node 87)
Minimum accepted flit rate = 0.06 (at node 80)
Average accepted flit rate = 0.0990937
Maximum accepted flit rate = 0.148 (at node 29)
Average injected packet length = 1
Average accepted packet length = 1
Total in-flight flits = 287 (287 measured)
latency change    = 0.00588014
throughput change = 0.00591296
1
Class 0:
Minimum packet latency = 5
Average packet latency = 11.3018
Maximum packet latency = 20
Minimum network latency = 5
Average network latency = 11.3018
Maximum network latency = 20
Slowest packet = 51896
Minimum flit latency = 5
Average flit latency = 11.3075
Maximum flit latency = 20
Slowest flit = 51896
Minimum fragmentation = 0
Average fragmentation = 0
Maximum fragmentation = 0
Minimum injected packet rate = 0.072 (at node 39)
Average injected packet rate = 0.0996875
Maximum injected packet rate = 0.132 (at node 87)
Minimum accepted packet rate = 0.074 (at node 78)
Average accepted packet rate = 0.099625
Maximum accepted packet rate = 0.13 (at node 174)
Minimum injected flit rate = 0.072 (at node 39)
Average injected flit rate = 0.0996875
Maximum injected flit rate = 0.132 (at node 87)
Minimum accepted flit rate = 0.074 (at node 78)
Average accepted flit rate = 0.099625
Maximum accepted flit rate = 0.13 (at node 174)
Average injected packet length = 1
Average accepted packet length = 1
Total in-flight flits = 304 (304 measured)
latency change    = 0.00473972
throughput change = 0.0053325
1
Class 0:
Minimum packet latency = 5
Average packet latency = 11.2957
Maximum packet latency = 20
Minimum network latency = 5
Average network latency = 11.2957
Maximum network latency = 20
Slowest packet = 51896
Minimum flit latency = 5
Average flit latency = 11.2995
Maximum flit latency = 20
Slowest flit = 51896
Minimum fragmentation = 0
Average fragmentation = 0
Maximum fragmentation = 0
Minimum injected packet rate = 0.078 (at node 39)
Average injected packet rate = 0.100076
Maximum injected packet rate = 0.128667 (at node 87)
Minimum accepted packet rate = 0.0786667 (at node 78)
Average accepted packet rate = 0.100073
Maximum accepted packet rate = 0.127333 (at node 174)
Minimum injected flit rate = 0.078 (at node 39)
Average injected flit rate = 0.100076
Maximum injected flit rate = 0.128667 (at node 87)
Minimum accepted flit rate = 0.0786667 (at node 78)
Average accepted flit rate = 0.100073
Maximum accepted flit rate = 0.127333 (at node 174)
Average injected packet length = 1
Average accepted packet length = 1
Total in-flight flits = 289 (289 measured)
latency change    = 0.000539361
throughput change = 0.0044759
Draining all recorded packets ...
Draining remaining packets ...
Time taken is 3038 cycles
====== Traffic class 0 ======
Overall minimum packet latency = 5 (1 samples)
Overall average packet latency = 11.3011 (1 samples)
Overall maximum packet latency = 20 (1 samples)
Overall minimum network latency = 5 (1 samples)
Overall average network latency = 11.3011 (1 samples)
Overall maximum network latency = 20 (1 samples)
Overall minimum flit latency = 5 (1 samples)
Overall average flit latency = 11.3045 (1 samples)
Overall maximum flit latency = 20 (1 samples)
Overall minimum fragmentation = 0 (1 samples)
Overall average fragmentation = 0 (1 samples)
Overall maximum fragmentation = 0 (1 samples)
Overall minimum injected packet rate = 0.078 (1 samples)
Overall average injected packet rate = 0.100076 (1 samples)
Overall maximum injected packet rate = 0.128667 (1 samples)
Overall minimum accepted packet rate = 0.0786667 (1 samples)
Overall average accepted packet rate = 0.100073 (1 samples)
Overall maximum accepted packet rate = 0.127333 (1 samples)
Overall minimum injected flit rate = 0.078 (1 samples)
Overall average injected flit rate = 0.100076 (1 samples)
Overall maximum injected flit rate = 0.128667 (1 samples)
Overall minimum accepted flit rate = 0.0786667 (1 samples)
Overall average accepted flit rate = 0.100073 (1 samples)
Overall maximum accepted flit rate = 0.127333 (1 samples)
Overall average injected packet size = 1 (1 samples)
Overall average accepted packet size = 1 (1 samples)
Overall average hops = 3.05725 (1 samples)
Total run time 3.87704
