BEGIN Configuration File: ./FBF-3.conf
injection_rate = 0.4;
traffic = shuffle;
routing_function = ugal;
vc_buf_size = 16;
topology = flatfly;
use_noc_latency = 0;
hold_switch_for_packet=0;

c = 4;
k = 8;
n = 2;

x  = 8;
y  = 8;
xr = 2;
yr = 2;

packet_size  = 1;
num_vcs      = 2;
vc_allocator = separable_input_first; 
sw_allocator = separable_input_first;

alloc_iters   = 1;
sample_period = 500;

wait_for_tail_credit = 0;
use_read_write       = 0;

credit_delay   = 2;
routing_delay  = 0;
vc_alloc_delay = 1;
sw_alloc_delay = 1;
st_final_delay = 1;

input_speedup     = 1;
output_speedup    = 1;
internal_speedup  = 2.0;

warmup_periods = 3;
sim_count      = 1;

priority = none;
injection_rate_uses_flits=1;

END Configuration File: ./FBF-3.conf
Number of nodes: 256
Number of routers: 64
 Flat Bufferfly 
 k = 8 n = 2 c = 4
 each switch - total radix =  18
 # of switches = 64
 # of channels = 896
 # of nodes ( size of network ) = 256
0
Class 0:
Minimum packet latency = 5
Average packet latency = 13.1557
Maximum packet latency = 29
Minimum network latency = 5
Average network latency = 13.1557
Maximum network latency = 29
Slowest packet = 24169
Minimum flit latency = 5
Average flit latency = 13.1557
Maximum flit latency = 29
Slowest flit = 24169
Minimum fragmentation = 0
Average fragmentation = 0
Maximum fragmentation = 0
Minimum injected packet rate = 0.334 (at node 172)
Average injected packet rate = 0.398383
Maximum injected packet rate = 0.452 (at node 149)
Minimum accepted packet rate = 0.324 (at node 89)
Average accepted packet rate = 0.38768
Maximum accepted packet rate = 0.434 (at node 44)
Minimum injected flit rate = 0.334 (at node 172)
Average injected flit rate = 0.398383
Maximum injected flit rate = 0.452 (at node 149)
Minimum accepted flit rate = 0.324 (at node 89)
Average accepted flit rate = 0.38768
Maximum accepted flit rate = 0.434 (at node 44)
Average injected packet length = 1
Average accepted packet length = 1
Total in-flight flits = 1370 (0 measured)
latency change    = 1
throughput change = 1
0
Class 0:
Minimum packet latency = 5
Average packet latency = 13.1731
Maximum packet latency = 29
Minimum network latency = 5
Average network latency = 13.1731
Maximum network latency = 29
Slowest packet = 24169
Minimum flit latency = 5
Average flit latency = 13.1731
Maximum flit latency = 29
Slowest flit = 24169
Minimum fragmentation = 0
Average fragmentation = 0
Maximum fragmentation = 0
Minimum injected packet rate = 0.363 (at node 53)
Average injected packet rate = 0.399004
Maximum injected packet rate = 0.439 (at node 74)
Minimum accepted packet rate = 0.355 (at node 106)
Average accepted packet rate = 0.39352
Maximum accepted packet rate = 0.434 (at node 123)
Minimum injected flit rate = 0.363 (at node 53)
Average injected flit rate = 0.399004
Maximum injected flit rate = 0.439 (at node 74)
Minimum accepted flit rate = 0.355 (at node 106)
Average accepted flit rate = 0.39352
Maximum accepted flit rate = 0.434 (at node 123)
Average injected packet length = 1
Average accepted packet length = 1
Total in-flight flits = 1404 (0 measured)
latency change    = 0.00132264
throughput change = 0.01484
0
Class 0:
Minimum packet latency = 5
Average packet latency = 13.1994
Maximum packet latency = 28
Minimum network latency = 5
Average network latency = 13.1994
Maximum network latency = 28
Slowest packet = 136552
Minimum flit latency = 5
Average flit latency = 13.1994
Maximum flit latency = 28
Slowest flit = 136552
Minimum fragmentation = 0
Average fragmentation = 0
Maximum fragmentation = 0
Minimum injected packet rate = 0.34 (at node 186)
Average injected packet rate = 0.399008
Maximum injected packet rate = 0.46 (at node 51)
Minimum accepted packet rate = 0.334 (at node 117)
Average accepted packet rate = 0.399898
Maximum accepted packet rate = 0.458 (at node 102)
Minimum injected flit rate = 0.34 (at node 186)
Average injected flit rate = 0.399008
Maximum injected flit rate = 0.46 (at node 51)
Minimum accepted flit rate = 0.334 (at node 117)
Average accepted flit rate = 0.399898
Maximum accepted flit rate = 0.458 (at node 102)
Average injected packet length = 1
Average accepted packet length = 1
Total in-flight flits = 1290 (0 measured)
latency change    = 0.00199167
throughput change = 0.0159513
Warmed up ...Time used is 1500 cycles
1
Class 0:
Minimum packet latency = 5
Average packet latency = 13.2033
Maximum packet latency = 28
Minimum network latency = 5
Average network latency = 13.2033
Maximum network latency = 28
Slowest packet = 191215
Minimum flit latency = 5
Average flit latency = 13.2206
Maximum flit latency = 28
Slowest flit = 191215
Minimum fragmentation = 0
Average fragmentation = 0
Maximum fragmentation = 0
Minimum injected packet rate = 0.332 (at node 233)
Average injected packet rate = 0.401258
Maximum injected packet rate = 0.464 (at node 239)
Minimum accepted packet rate = 0.334 (at node 211)
Average accepted packet rate = 0.400609
Maximum accepted packet rate = 0.452 (at node 223)
Minimum injected flit rate = 0.332 (at node 233)
Average injected flit rate = 0.401258
Maximum injected flit rate = 0.464 (at node 239)
Minimum accepted flit rate = 0.334 (at node 211)
Average accepted flit rate = 0.400609
Maximum accepted flit rate = 0.452 (at node 223)
Average injected packet length = 1
Average accepted packet length = 1
Total in-flight flits = 1373 (1373 measured)
latency change    = 0.000292555
throughput change = 0.00177464
1
Class 0:
Minimum packet latency = 5
Average packet latency = 13.2224
Maximum packet latency = 28
Minimum network latency = 5
Average network latency = 13.2224
Maximum network latency = 28
Slowest packet = 191215
Minimum flit latency = 5
Average flit latency = 13.2309
Maximum flit latency = 28
Slowest flit = 191215
Minimum fragmentation = 0
Average fragmentation = 0
Maximum fragmentation = 0
Minimum injected packet rate = 0.367 (at node 171)
Average injected packet rate = 0.400414
Maximum injected packet rate = 0.437 (at node 220)
Minimum accepted packet rate = 0.367 (at node 232)
Average accepted packet rate = 0.400133
Maximum accepted packet rate = 0.437 (at node 230)
Minimum injected flit rate = 0.367 (at node 171)
Average injected flit rate = 0.400414
Maximum injected flit rate = 0.437 (at node 220)
Minimum accepted flit rate = 0.367 (at node 232)
Average accepted flit rate = 0.400133
Maximum accepted flit rate = 0.437 (at node 230)
Average injected packet length = 1
Average accepted packet length = 1
Total in-flight flits = 1362 (1362 measured)
latency change    = 0.00144805
throughput change = 0.00119101
1
Class 0:
Minimum packet latency = 5
Average packet latency = 13.2189
Maximum packet latency = 28
Minimum network latency = 5
Average network latency = 13.2189
Maximum network latency = 28
Slowest packet = 191215
Minimum flit latency = 5
Average flit latency = 13.2245
Maximum flit latency = 28
Slowest flit = 191215
Minimum fragmentation = 0
Average fragmentation = 0
Maximum fragmentation = 0
Minimum injected packet rate = 0.364 (at node 252)
Average injected packet rate = 0.400297
Maximum injected packet rate = 0.432 (at node 142)
Minimum accepted packet rate = 0.363333 (at node 249)
Average accepted packet rate = 0.400023
Maximum accepted packet rate = 0.434 (at node 230)
Minimum injected flit rate = 0.364 (at node 252)
Average injected flit rate = 0.400297
Maximum injected flit rate = 0.432 (at node 142)
Minimum accepted flit rate = 0.363333 (at node 249)
Average accepted flit rate = 0.400023
Maximum accepted flit rate = 0.434 (at node 230)
Average injected packet length = 1
Average accepted packet length = 1
Total in-flight flits = 1395 (1395 measured)
latency change    = 0.000266759
throughput change = 0.000273421
Draining all recorded packets ...
Draining remaining packets ...
Time taken is 3041 cycles
====== Traffic class 0 ======
Overall minimum packet latency = 5 (1 samples)
Overall average packet latency = 13.2271 (1 samples)
Overall maximum packet latency = 28 (1 samples)
Overall minimum network latency = 5 (1 samples)
Overall average network latency = 13.2271 (1 samples)
Overall maximum network latency = 28 (1 samples)
Overall minimum flit latency = 5 (1 samples)
Overall average flit latency = 13.2334 (1 samples)
Overall maximum flit latency = 28 (1 samples)
Overall minimum fragmentation = 0 (1 samples)
Overall average fragmentation = 0 (1 samples)
Overall maximum fragmentation = 0 (1 samples)
Overall minimum injected packet rate = 0.364 (1 samples)
Overall average injected packet rate = 0.400297 (1 samples)
Overall maximum injected packet rate = 0.432 (1 samples)
Overall minimum accepted packet rate = 0.363333 (1 samples)
Overall average accepted packet rate = 0.400023 (1 samples)
Overall maximum accepted packet rate = 0.434 (1 samples)
Overall minimum injected flit rate = 0.364 (1 samples)
Overall average injected flit rate = 0.400297 (1 samples)
Overall maximum injected flit rate = 0.432 (1 samples)
Overall minimum accepted flit rate = 0.363333 (1 samples)
Overall average accepted flit rate = 0.400023 (1 samples)
Overall maximum accepted flit rate = 0.434 (1 samples)
Overall average injected packet size = 1 (1 samples)
Overall average accepted packet size = 1 (1 samples)
Overall average hops = 3.35457 (1 samples)
Total run time 11.7954
