BEGIN Configuration File: ./FBF-3.conf
injection_rate = 0.4;
traffic = shuffle;
routing_function = ran_min;
vc_buf_size = 16;
topology = flatfly;
use_noc_latency = 0;
hold_switch_for_packet=0;

c = 4;
k = 8;
n = 2;

x  = 8;
y  = 8;
xr = 2;
yr = 2;

packet_size  = 1;
num_vcs      = 2;
vc_allocator = separable_input_first; 
sw_allocator = separable_input_first;

alloc_iters   = 1;
sample_period = 500;

wait_for_tail_credit = 0;
use_read_write       = 0;

credit_delay   = 2;
routing_delay  = 0;
vc_alloc_delay = 1;
sw_alloc_delay = 1;
st_final_delay = 1;

input_speedup     = 1;
output_speedup    = 1;
internal_speedup  = 2.0;

warmup_periods = 3;
sim_count      = 1;

priority = none;
injection_rate_uses_flits=1;

END Configuration File: ./FBF-3.conf
Number of nodes: 256
Number of routers: 64
 Flat Bufferfly 
 k = 8 n = 2 c = 4
 each switch - total radix =  18
 # of switches = 64
 # of channels = 896
 # of nodes ( size of network ) = 256
0
Class 0:
Minimum packet latency = 5
Average packet latency = 11.7249
Maximum packet latency = 22
Minimum network latency = 5
Average network latency = 11.7249
Maximum network latency = 22
Slowest packet = 33185
Minimum flit latency = 5
Average flit latency = 11.7249
Maximum flit latency = 22
Slowest flit = 33185
Minimum fragmentation = 0
Average fragmentation = 0
Maximum fragmentation = 0
Minimum injected packet rate = 0.334 (at node 172)
Average injected packet rate = 0.398383
Maximum injected packet rate = 0.452 (at node 149)
Minimum accepted packet rate = 0.326 (at node 89)
Average accepted packet rate = 0.389
Maximum accepted packet rate = 0.436 (at node 43)
Minimum injected flit rate = 0.334 (at node 172)
Average injected flit rate = 0.398383
Maximum injected flit rate = 0.452 (at node 149)
Minimum accepted flit rate = 0.326 (at node 89)
Average accepted flit rate = 0.389
Maximum accepted flit rate = 0.436 (at node 43)
Average injected packet length = 1
Average accepted packet length = 1
Total in-flight flits = 1201 (0 measured)
latency change    = 1
throughput change = 1
0
Class 0:
Minimum packet latency = 5
Average packet latency = 11.7512
Maximum packet latency = 24
Minimum network latency = 5
Average network latency = 11.7512
Maximum network latency = 24
Slowest packet = 56396
Minimum flit latency = 5
Average flit latency = 11.7512
Maximum flit latency = 24
Slowest flit = 56396
Minimum fragmentation = 0
Average fragmentation = 0
Maximum fragmentation = 0
Minimum injected packet rate = 0.363 (at node 53)
Average injected packet rate = 0.399004
Maximum injected packet rate = 0.439 (at node 74)
Minimum accepted packet rate = 0.355 (at node 106)
Average accepted packet rate = 0.39409
Maximum accepted packet rate = 0.435 (at node 123)
Minimum injected flit rate = 0.363 (at node 53)
Average injected flit rate = 0.399004
Maximum injected flit rate = 0.439 (at node 74)
Minimum accepted flit rate = 0.355 (at node 106)
Average accepted flit rate = 0.39409
Maximum accepted flit rate = 0.435 (at node 123)
Average injected packet length = 1
Average accepted packet length = 1
Total in-flight flits = 1258 (0 measured)
latency change    = 0.00224581
throughput change = 0.0129154
0
Class 0:
Minimum packet latency = 5
Average packet latency = 11.817
Maximum packet latency = 27
Minimum network latency = 5
Average network latency = 11.817
Maximum network latency = 27
Slowest packet = 141408
Minimum flit latency = 5
Average flit latency = 11.817
Maximum flit latency = 27
Slowest flit = 141408
Minimum fragmentation = 0
Average fragmentation = 0
Maximum fragmentation = 0
Minimum injected packet rate = 0.34 (at node 186)
Average injected packet rate = 0.399008
Maximum injected packet rate = 0.46 (at node 51)
Minimum accepted packet rate = 0.334 (at node 117)
Average accepted packet rate = 0.39968
Maximum accepted packet rate = 0.458 (at node 189)
Minimum injected flit rate = 0.34 (at node 186)
Average injected flit rate = 0.399008
Maximum injected flit rate = 0.46 (at node 51)
Minimum accepted flit rate = 0.334 (at node 117)
Average accepted flit rate = 0.39968
Maximum accepted flit rate = 0.458 (at node 189)
Average injected packet length = 1
Average accepted packet length = 1
Total in-flight flits = 1172 (0 measured)
latency change    = 0.00556119
throughput change = 0.0139858
Warmed up ...Time used is 1500 cycles
1
Class 0:
Minimum packet latency = 5
Average packet latency = 11.8073
Maximum packet latency = 25
Minimum network latency = 5
Average network latency = 11.8073
Maximum network latency = 25
Slowest packet = 159426
Minimum flit latency = 5
Average flit latency = 11.8159
Maximum flit latency = 25
Slowest flit = 159426
Minimum fragmentation = 0
Average fragmentation = 0
Maximum fragmentation = 0
Minimum injected packet rate = 0.332 (at node 233)
Average injected packet rate = 0.401258
Maximum injected packet rate = 0.464 (at node 239)
Minimum accepted packet rate = 0.336 (at node 211)
Average accepted packet rate = 0.400562
Maximum accepted packet rate = 0.45 (at node 76)
Minimum injected flit rate = 0.332 (at node 233)
Average injected flit rate = 0.401258
Maximum injected flit rate = 0.464 (at node 239)
Minimum accepted flit rate = 0.336 (at node 211)
Average accepted flit rate = 0.400562
Maximum accepted flit rate = 0.45 (at node 76)
Average injected packet length = 1
Average accepted packet length = 1
Total in-flight flits = 1261 (1261 measured)
latency change    = 0.000821302
throughput change = 0.00220393
1
Class 0:
Minimum packet latency = 5
Average packet latency = 11.8365
Maximum packet latency = 27
Minimum network latency = 5
Average network latency = 11.8365
Maximum network latency = 27
Slowest packet = 206847
Minimum flit latency = 5
Average flit latency = 11.8405
Maximum flit latency = 27
Slowest flit = 206847
Minimum fragmentation = 0
Average fragmentation = 0
Maximum fragmentation = 0
Minimum injected packet rate = 0.367 (at node 171)
Average injected packet rate = 0.400414
Maximum injected packet rate = 0.437 (at node 220)
Minimum accepted packet rate = 0.367 (at node 249)
Average accepted packet rate = 0.400301
Maximum accepted packet rate = 0.437 (at node 230)
Minimum injected flit rate = 0.367 (at node 171)
Average injected flit rate = 0.400414
Maximum injected flit rate = 0.437 (at node 220)
Minimum accepted flit rate = 0.367 (at node 249)
Average accepted flit rate = 0.400301
Maximum accepted flit rate = 0.437 (at node 230)
Average injected packet length = 1
Average accepted packet length = 1
Total in-flight flits = 1201 (1201 measured)
latency change    = 0.00247017
throughput change = 0.000653805
1
Class 0:
Minimum packet latency = 5
Average packet latency = 11.8261
Maximum packet latency = 27
Minimum network latency = 5
Average network latency = 11.8261
Maximum network latency = 27
Slowest packet = 206847
Minimum flit latency = 5
Average flit latency = 11.8288
Maximum flit latency = 27
Slowest flit = 206847
Minimum fragmentation = 0
Average fragmentation = 0
Maximum fragmentation = 0
Minimum injected packet rate = 0.364 (at node 252)
Average injected packet rate = 0.400297
Maximum injected packet rate = 0.432 (at node 142)
Minimum accepted packet rate = 0.363333 (at node 249)
Average accepted packet rate = 0.400055
Maximum accepted packet rate = 0.434667 (at node 230)
Minimum injected flit rate = 0.364 (at node 252)
Average injected flit rate = 0.400297
Maximum injected flit rate = 0.432 (at node 142)
Minimum accepted flit rate = 0.363333 (at node 249)
Average accepted flit rate = 0.400055
Maximum accepted flit rate = 0.434667 (at node 230)
Average injected packet length = 1
Average accepted packet length = 1
Total in-flight flits = 1265 (1265 measured)
latency change    = 0.000880894
throughput change = 0.00061515
Draining all recorded packets ...
Draining remaining packets ...
Time taken is 3042 cycles
====== Traffic class 0 ======
Overall minimum packet latency = 5 (1 samples)
Overall average packet latency = 11.8322 (1 samples)
Overall maximum packet latency = 27 (1 samples)
Overall minimum network latency = 5 (1 samples)
Overall average network latency = 11.8322 (1 samples)
Overall maximum network latency = 27 (1 samples)
Overall minimum flit latency = 5 (1 samples)
Overall average flit latency = 11.8355 (1 samples)
Overall maximum flit latency = 27 (1 samples)
Overall minimum fragmentation = 0 (1 samples)
Overall average fragmentation = 0 (1 samples)
Overall maximum fragmentation = 0 (1 samples)
Overall minimum injected packet rate = 0.364 (1 samples)
Overall average injected packet rate = 0.400297 (1 samples)
Overall maximum injected packet rate = 0.432 (1 samples)
Overall minimum accepted packet rate = 0.363333 (1 samples)
Overall average accepted packet rate = 0.400055 (1 samples)
Overall maximum accepted packet rate = 0.434667 (1 samples)
Overall minimum injected flit rate = 0.364 (1 samples)
Overall average injected flit rate = 0.400297 (1 samples)
Overall maximum injected flit rate = 0.432 (1 samples)
Overall minimum accepted flit rate = 0.363333 (1 samples)
Overall average accepted flit rate = 0.400055 (1 samples)
Overall maximum accepted flit rate = 0.434667 (1 samples)
Overall average injected packet size = 1 (1 samples)
Overall average accepted packet size = 1 (1 samples)
Overall average hops = 2.75045 (1 samples)
Total run time 11.0884
