BEGIN Configuration File: ./FBF-3.conf
injection_rate = 0.4;
traffic = uniform;
routing_function = ugal;
vc_buf_size = 16;
topology = flatfly;
use_noc_latency = 0;
hold_switch_for_packet=0;

c = 4;
k = 8;
n = 2;

x  = 8;
y  = 8;
xr = 2;
yr = 2;

packet_size  = 1;
num_vcs      = 2;
vc_allocator = separable_input_first; 
sw_allocator = separable_input_first;

alloc_iters   = 1;
sample_period = 500;

wait_for_tail_credit = 0;
use_read_write       = 0;

credit_delay   = 2;
routing_delay  = 0;
vc_alloc_delay = 1;
sw_alloc_delay = 1;
st_final_delay = 1;

input_speedup     = 1;
output_speedup    = 1;
internal_speedup  = 2.0;

warmup_periods = 3;
sim_count      = 1;

priority = none;
injection_rate_uses_flits=1;

END Configuration File: ./FBF-3.conf
Number of nodes: 256
Number of routers: 64
 Flat Bufferfly 
 k = 8 n = 2 c = 4
 each switch - total radix =  18
 # of switches = 64
 # of channels = 896
 # of nodes ( size of network ) = 256
0
Class 0:
Minimum packet latency = 5
Average packet latency = 11.2474
Maximum packet latency = 24
Minimum network latency = 5
Average network latency = 11.2474
Maximum network latency = 24
Slowest packet = 31508
Minimum flit latency = 5
Average flit latency = 11.2474
Maximum flit latency = 24
Slowest flit = 31508
Minimum fragmentation = 0
Average fragmentation = 0
Maximum fragmentation = 0
Minimum injected packet rate = 0.334 (at node 172)
Average injected packet rate = 0.398383
Maximum injected packet rate = 0.452 (at node 149)
Minimum accepted packet rate = 0.318 (at node 229)
Average accepted packet rate = 0.389516
Maximum accepted packet rate = 0.468 (at node 27)
Minimum injected flit rate = 0.334 (at node 172)
Average injected flit rate = 0.398383
Maximum injected flit rate = 0.452 (at node 149)
Minimum accepted flit rate = 0.318 (at node 229)
Average accepted flit rate = 0.389516
Maximum accepted flit rate = 0.468 (at node 27)
Average injected packet length = 1
Average accepted packet length = 1
Total in-flight flits = 1135 (0 measured)
latency change    = 1
throughput change = 1
0
Class 0:
Minimum packet latency = 5
Average packet latency = 11.2518
Maximum packet latency = 24
Minimum network latency = 5
Average network latency = 11.2518
Maximum network latency = 24
Slowest packet = 31508
Minimum flit latency = 5
Average flit latency = 11.2518
Maximum flit latency = 24
Slowest flit = 31508
Minimum fragmentation = 0
Average fragmentation = 0
Maximum fragmentation = 0
Minimum injected packet rate = 0.363 (at node 53)
Average injected packet rate = 0.399004
Maximum injected packet rate = 0.439 (at node 74)
Minimum accepted packet rate = 0.348 (at node 116)
Average accepted packet rate = 0.394293
Maximum accepted packet rate = 0.444 (at node 112)
Minimum injected flit rate = 0.363 (at node 53)
Average injected flit rate = 0.399004
Maximum injected flit rate = 0.439 (at node 74)
Minimum accepted flit rate = 0.348 (at node 116)
Average accepted flit rate = 0.394293
Maximum accepted flit rate = 0.444 (at node 112)
Average injected packet length = 1
Average accepted packet length = 1
Total in-flight flits = 1206 (0 measured)
latency change    = 0.00039045
throughput change = 0.0121162
0
Class 0:
Minimum packet latency = 5
Average packet latency = 11.246
Maximum packet latency = 26
Minimum network latency = 5
Average network latency = 11.246
Maximum network latency = 26
Slowest packet = 133058
Minimum flit latency = 5
Average flit latency = 11.246
Maximum flit latency = 26
Slowest flit = 133058
Minimum fragmentation = 0
Average fragmentation = 0
Maximum fragmentation = 0
Minimum injected packet rate = 0.34 (at node 186)
Average injected packet rate = 0.399008
Maximum injected packet rate = 0.46 (at node 51)
Minimum accepted packet rate = 0.334 (at node 83)
Average accepted packet rate = 0.399641
Maximum accepted packet rate = 0.476 (at node 215)
Minimum injected flit rate = 0.34 (at node 186)
Average injected flit rate = 0.399008
Maximum injected flit rate = 0.46 (at node 51)
Minimum accepted flit rate = 0.334 (at node 83)
Average accepted flit rate = 0.399641
Maximum accepted flit rate = 0.476 (at node 215)
Average injected packet length = 1
Average accepted packet length = 1
Total in-flight flits = 1125 (0 measured)
latency change    = 0.000511648
throughput change = 0.0133812
Warmed up ...Time used is 1500 cycles
1
Class 0:
Minimum packet latency = 5
Average packet latency = 11.2374
Maximum packet latency = 25
Minimum network latency = 5
Average network latency = 11.2374
Maximum network latency = 25
Slowest packet = 155374
Minimum flit latency = 5
Average flit latency = 11.2507
Maximum flit latency = 25
Slowest flit = 155374
Minimum fragmentation = 0
Average fragmentation = 0
Maximum fragmentation = 0
Minimum injected packet rate = 0.332 (at node 233)
Average injected packet rate = 0.401258
Maximum injected packet rate = 0.464 (at node 239)
Minimum accepted packet rate = 0.32 (at node 41)
Average accepted packet rate = 0.400813
Maximum accepted packet rate = 0.48 (at node 71)
Minimum injected flit rate = 0.332 (at node 233)
Average injected flit rate = 0.401258
Maximum injected flit rate = 0.464 (at node 239)
Minimum accepted flit rate = 0.32 (at node 41)
Average accepted flit rate = 0.400813
Maximum accepted flit rate = 0.48 (at node 71)
Average injected packet length = 1
Average accepted packet length = 1
Total in-flight flits = 1182 (1182 measured)
latency change    = 0.000764571
throughput change = 0.00292375
1
Class 0:
Minimum packet latency = 5
Average packet latency = 11.234
Maximum packet latency = 25
Minimum network latency = 5
Average network latency = 11.234
Maximum network latency = 25
Slowest packet = 155374
Minimum flit latency = 5
Average flit latency = 11.2406
Maximum flit latency = 25
Slowest flit = 155374
Minimum fragmentation = 0
Average fragmentation = 0
Maximum fragmentation = 0
Minimum injected packet rate = 0.367 (at node 171)
Average injected packet rate = 0.400414
Maximum injected packet rate = 0.437 (at node 220)
Minimum accepted packet rate = 0.351 (at node 190)
Average accepted packet rate = 0.400375
Maximum accepted packet rate = 0.456 (at node 191)
Minimum injected flit rate = 0.367 (at node 171)
Average injected flit rate = 0.400414
Maximum injected flit rate = 0.437 (at node 220)
Minimum accepted flit rate = 0.351 (at node 190)
Average accepted flit rate = 0.400375
Maximum accepted flit rate = 0.456 (at node 191)
Average injected packet length = 1
Average accepted packet length = 1
Total in-flight flits = 1135 (1135 measured)
latency change    = 0.000309552
throughput change = 0.00109273
1
Class 0:
Minimum packet latency = 5
Average packet latency = 11.2359
Maximum packet latency = 25
Minimum network latency = 5
Average network latency = 11.2359
Maximum network latency = 25
Slowest packet = 155374
Minimum flit latency = 5
Average flit latency = 11.2404
Maximum flit latency = 25
Slowest flit = 155374
Minimum fragmentation = 0
Average fragmentation = 0
Maximum fragmentation = 0
Minimum injected packet rate = 0.364 (at node 252)
Average injected packet rate = 0.400297
Maximum injected packet rate = 0.432 (at node 142)
Minimum accepted packet rate = 0.356667 (at node 190)
Average accepted packet rate = 0.400141
Maximum accepted packet rate = 0.446667 (at node 22)
Minimum injected flit rate = 0.364 (at node 252)
Average injected flit rate = 0.400297
Maximum injected flit rate = 0.432 (at node 142)
Minimum accepted flit rate = 0.356667 (at node 190)
Average accepted flit rate = 0.400141
Maximum accepted flit rate = 0.446667 (at node 22)
Average injected packet length = 1
Average accepted packet length = 1
Total in-flight flits = 1185 (1185 measured)
latency change    = 0.000175316
throughput change = 0.000585732
Draining all recorded packets ...
Draining remaining packets ...
Time taken is 3042 cycles
====== Traffic class 0 ======
Overall minimum packet latency = 5 (1 samples)
Overall average packet latency = 11.2407 (1 samples)
Overall maximum packet latency = 25 (1 samples)
Overall minimum network latency = 5 (1 samples)
Overall average network latency = 11.2407 (1 samples)
Overall maximum network latency = 25 (1 samples)
Overall minimum flit latency = 5 (1 samples)
Overall average flit latency = 11.2453 (1 samples)
Overall maximum flit latency = 25 (1 samples)
Overall minimum fragmentation = 0 (1 samples)
Overall average fragmentation = 0 (1 samples)
Overall maximum fragmentation = 0 (1 samples)
Overall minimum injected packet rate = 0.364 (1 samples)
Overall average injected packet rate = 0.400297 (1 samples)
Overall maximum injected packet rate = 0.432 (1 samples)
Overall minimum accepted packet rate = 0.356667 (1 samples)
Overall average accepted packet rate = 0.400141 (1 samples)
Overall maximum accepted packet rate = 0.446667 (1 samples)
Overall minimum injected flit rate = 0.364 (1 samples)
Overall average injected flit rate = 0.400297 (1 samples)
Overall maximum injected flit rate = 0.432 (1 samples)
Overall minimum accepted flit rate = 0.356667 (1 samples)
Overall average accepted flit rate = 0.400141 (1 samples)
Overall maximum accepted flit rate = 0.446667 (1 samples)
Overall average injected packet size = 1 (1 samples)
Overall average accepted packet size = 1 (1 samples)
Overall average hops = 2.88847 (1 samples)
Total run time 10.4265
