BEGIN Configuration File: ./FBF-3.conf
injection_rate = 0.8;
traffic = shuffle;
routing_function = ugal;
vc_buf_size = 16;
topology = flatfly;
use_noc_latency = 0;
hold_switch_for_packet=0;

c = 4;
k = 8;
n = 2;

x  = 8;
y  = 8;
xr = 2;
yr = 2;

packet_size  = 1;
num_vcs      = 2;
vc_allocator = separable_input_first; 
sw_allocator = separable_input_first;

alloc_iters   = 1;
sample_period = 500;

wait_for_tail_credit = 0;
use_read_write       = 0;

credit_delay   = 2;
routing_delay  = 0;
vc_alloc_delay = 1;
sw_alloc_delay = 1;
st_final_delay = 1;

input_speedup     = 1;
output_speedup    = 1;
internal_speedup  = 2.0;

warmup_periods = 3;
sim_count      = 1;

priority = none;
injection_rate_uses_flits=1;

END Configuration File: ./FBF-3.conf
Number of nodes: 256
Number of routers: 64
 Flat Bufferfly 
 k = 8 n = 2 c = 4
 each switch - total radix =  18
 # of switches = 64
 # of channels = 896
 # of nodes ( size of network ) = 256
0
Class 0:
Minimum packet latency = 5
Average packet latency = 45.4575
Maximum packet latency = 246
Minimum network latency = 5
Average network latency = 40.3705
Maximum network latency = 177
Slowest packet = 14560
Minimum flit latency = 5
Average flit latency = 40.3705
Maximum flit latency = 177
Slowest flit = 55377
Minimum fragmentation = 0
Average fragmentation = 0
Maximum fragmentation = 0
Minimum injected packet rate = 0.508 (at node 9)
Average injected packet rate = 0.750586
Maximum injected packet rate = 0.834 (at node 94)
Minimum accepted packet rate = 0.434 (at node 24)
Average accepted packet rate = 0.675641
Maximum accepted packet rate = 0.814 (at node 30)
Minimum injected flit rate = 0.508 (at node 9)
Average injected flit rate = 0.750586
Maximum injected flit rate = 0.834 (at node 94)
Minimum accepted flit rate = 0.434 (at node 24)
Average accepted flit rate = 0.675641
Maximum accepted flit rate = 0.814 (at node 30)
Average injected packet length = 1
Average accepted packet length = 1
Total in-flight flits = 9650 (0 measured)
latency change    = 1
throughput change = 1
0
Class 0:
Minimum packet latency = 5
Average packet latency = 73.56
Maximum packet latency = 438
Minimum network latency = 5
Average network latency = 47.2672
Maximum network latency = 183
Slowest packet = 14560
Minimum flit latency = 5
Average flit latency = 47.2672
Maximum flit latency = 183
Slowest flit = 89744
Minimum fragmentation = 0
Average fragmentation = 0
Maximum fragmentation = 0
Minimum injected packet rate = 0.498 (at node 9)
Average injected packet rate = 0.72693
Maximum injected packet rate = 0.827 (at node 17)
Minimum accepted packet rate = 0.458 (at node 18)
Average accepted packet rate = 0.688668
Maximum accepted packet rate = 0.81 (at node 34)
Minimum injected flit rate = 0.498 (at node 9)
Average injected flit rate = 0.72693
Maximum injected flit rate = 0.827 (at node 17)
Minimum accepted flit rate = 0.458 (at node 18)
Average accepted flit rate = 0.688668
Maximum accepted flit rate = 0.81 (at node 34)
Average injected packet length = 1
Average accepted packet length = 1
Total in-flight flits = 9860 (0 measured)
latency change    = 0.382035
throughput change = 0.0189167
0
Class 0:
Minimum packet latency = 5
Average packet latency = 154.904
Maximum packet latency = 627
Minimum network latency = 5
Average network latency = 54.7667
Maximum network latency = 187
Slowest packet = 167219
Minimum flit latency = 5
Average flit latency = 54.7667
Maximum flit latency = 187
Slowest flit = 210535
Minimum fragmentation = 0
Average fragmentation = 0
Maximum fragmentation = 0
Minimum injected packet rate = 0.456 (at node 246)
Average injected packet rate = 0.701609
Maximum injected packet rate = 0.856 (at node 143)
Minimum accepted packet rate = 0.45 (at node 243)
Average accepted packet rate = 0.701141
Maximum accepted packet rate = 0.852 (at node 31)
Minimum injected flit rate = 0.456 (at node 246)
Average injected flit rate = 0.701609
Maximum injected flit rate = 0.856 (at node 143)
Minimum accepted flit rate = 0.45 (at node 243)
Average accepted flit rate = 0.701141
Maximum accepted flit rate = 0.852 (at node 31)
Average injected packet length = 1
Average accepted packet length = 1
Total in-flight flits = 9926 (0 measured)
latency change    = 0.525126
throughput change = 0.0177891
Warmed up ...Time used is 1500 cycles
1
Class 0:
Minimum packet latency = 5
Average packet latency = 208.564
Maximum packet latency = 832
Minimum network latency = 5
Average network latency = 53.1835
Maximum network latency = 169
Slowest packet = 276233
Minimum flit latency = 5
Average flit latency = 54.9997
Maximum flit latency = 169
Slowest flit = 318529
Minimum fragmentation = 0
Average fragmentation = 0
Maximum fragmentation = 0
Minimum injected packet rate = 0.43 (at node 246)
Average injected packet rate = 0.699539
Maximum injected packet rate = 0.86 (at node 24)
Minimum accepted packet rate = 0.436 (at node 237)
Average accepted packet rate = 0.69932
Maximum accepted packet rate = 0.866 (at node 48)
Minimum injected flit rate = 0.43 (at node 246)
Average injected flit rate = 0.699539
Maximum injected flit rate = 0.86 (at node 24)
Minimum accepted flit rate = 0.436 (at node 237)
Average accepted flit rate = 0.69932
Maximum accepted flit rate = 0.866 (at node 48)
Average injected packet length = 1
Average accepted packet length = 1
Total in-flight flits = 9945 (9945 measured)
latency change    = 0.257282
throughput change = 0.00260297
1
Class 0:
Minimum packet latency = 5
Average packet latency = 240.97
Maximum packet latency = 1052
Minimum network latency = 5
Average network latency = 54.2774
Maximum network latency = 173
Slowest packet = 276233
Minimum flit latency = 5
Average flit latency = 55.1255
Maximum flit latency = 173
Slowest flit = 359534
Minimum fragmentation = 0
Average fragmentation = 0
Maximum fragmentation = 0
Minimum injected packet rate = 0.447 (at node 246)
Average injected packet rate = 0.699094
Maximum injected packet rate = 0.854 (at node 24)
Minimum accepted packet rate = 0.452 (at node 237)
Average accepted packet rate = 0.698766
Maximum accepted packet rate = 0.855 (at node 48)
Minimum injected flit rate = 0.447 (at node 246)
Average injected flit rate = 0.699094
Maximum injected flit rate = 0.854 (at node 24)
Minimum accepted flit rate = 0.452 (at node 237)
Average accepted flit rate = 0.698766
Maximum accepted flit rate = 0.855 (at node 48)
Average injected packet length = 1
Average accepted packet length = 1
Total in-flight flits = 9997 (9997 measured)
latency change    = 0.13448
throughput change = 0.000793811
1
Class 0:
Minimum packet latency = 5
Average packet latency = 270.851
Maximum packet latency = 1274
Minimum network latency = 5
Average network latency = 54.5567
Maximum network latency = 184
Slowest packet = 276233
Minimum flit latency = 5
Average flit latency = 55.1114
Maximum flit latency = 184
Slowest flit = 441726
Minimum fragmentation = 0
Average fragmentation = 0
Maximum fragmentation = 0
Minimum injected packet rate = 0.464 (at node 9)
Average injected packet rate = 0.699349
Maximum injected packet rate = 0.831333 (at node 24)
Minimum accepted packet rate = 0.463333 (at node 18)
Average accepted packet rate = 0.699271
Maximum accepted packet rate = 0.850667 (at node 48)
Minimum injected flit rate = 0.464 (at node 9)
Average injected flit rate = 0.699349
Maximum injected flit rate = 0.831333 (at node 24)
Minimum accepted flit rate = 0.463333 (at node 18)
Average accepted flit rate = 0.699271
Maximum accepted flit rate = 0.850667 (at node 48)
Average injected packet length = 1
Average accepted packet length = 1
Total in-flight flits = 9953 (9953 measured)
latency change    = 0.110325
throughput change = 0.000722479
1
Class 0:
Minimum packet latency = 5
Average packet latency = 300.167
Maximum packet latency = 1412
Minimum network latency = 5
Average network latency = 54.7677
Maximum network latency = 184
Slowest packet = 276233
Minimum flit latency = 5
Average flit latency = 55.1779
Maximum flit latency = 184
Slowest flit = 441726
Minimum fragmentation = 0
Average fragmentation = 0
Maximum fragmentation = 0
Minimum injected packet rate = 0.4885 (at node 246)
Average injected packet rate = 0.699383
Maximum injected packet rate = 0.818 (at node 46)
Minimum accepted packet rate = 0.4885 (at node 237)
Average accepted packet rate = 0.699293
Maximum accepted packet rate = 0.829 (at node 48)
Minimum injected flit rate = 0.4885 (at node 246)
Average injected flit rate = 0.699383
Maximum injected flit rate = 0.818 (at node 46)
Minimum accepted flit rate = 0.4885 (at node 237)
Average accepted flit rate = 0.699293
Maximum accepted flit rate = 0.829 (at node 48)
Average injected packet length = 1
Average accepted packet length = 1
Total in-flight flits = 9961 (9961 measured)
latency change    = 0.097663
throughput change = 3.1654e-05
1
Class 0:
Minimum packet latency = 5
Average packet latency = 328.833
Maximum packet latency = 1583
Minimum network latency = 5
Average network latency = 54.8934
Maximum network latency = 211
Slowest packet = 276233
Minimum flit latency = 5
Average flit latency = 55.2188
Maximum flit latency = 211
Slowest flit = 662020
Minimum fragmentation = 0
Average fragmentation = 0
Maximum fragmentation = 0
Minimum injected packet rate = 0.488 (at node 9)
Average injected packet rate = 0.699219
Maximum injected packet rate = 0.816 (at node 46)
Minimum accepted packet rate = 0.4864 (at node 12)
Average accepted packet rate = 0.699164
Maximum accepted packet rate = 0.8244 (at node 48)
Minimum injected flit rate = 0.488 (at node 9)
Average injected flit rate = 0.699219
Maximum injected flit rate = 0.816 (at node 46)
Minimum accepted flit rate = 0.4864 (at node 12)
Average accepted flit rate = 0.699164
Maximum accepted flit rate = 0.8244 (at node 48)
Average injected packet length = 1
Average accepted packet length = 1
Total in-flight flits = 9952 (9952 measured)
latency change    = 0.0871758
throughput change = 0.000184372
1
Class 0:
Minimum packet latency = 5
Average packet latency = 357.946
Maximum packet latency = 1753
Minimum network latency = 5
Average network latency = 54.9494
Maximum network latency = 211
Slowest packet = 276233
Minimum flit latency = 5
Average flit latency = 55.2195
Maximum flit latency = 211
Slowest flit = 662020
Minimum fragmentation = 0
Average fragmentation = 0
Maximum fragmentation = 0
Minimum injected packet rate = 0.485 (at node 6)
Average injected packet rate = 0.699305
Maximum injected packet rate = 0.819667 (at node 46)
Minimum accepted packet rate = 0.484667 (at node 12)
Average accepted packet rate = 0.699128
Maximum accepted packet rate = 0.817333 (at node 94)
Minimum injected flit rate = 0.485 (at node 6)
Average injected flit rate = 0.699305
Maximum injected flit rate = 0.819667 (at node 46)
Minimum accepted flit rate = 0.484667 (at node 12)
Average accepted flit rate = 0.699128
Maximum accepted flit rate = 0.817333 (at node 94)
Average injected packet length = 1
Average accepted packet length = 1
Total in-flight flits = 10050 (10050 measured)
latency change    = 0.0813328
throughput change = 5.21483e-05
1
Class 0:
Minimum packet latency = 5
Average packet latency = 386.77
Maximum packet latency = 1895
Minimum network latency = 5
Average network latency = 55.0178
Maximum network latency = 211
Slowest packet = 276233
Minimum flit latency = 5
Average flit latency = 55.2482
Maximum flit latency = 211
Slowest flit = 662020
Minimum fragmentation = 0
Average fragmentation = 0
Maximum fragmentation = 0
Minimum injected packet rate = 0.496 (at node 6)
Average injected packet rate = 0.699144
Maximum injected packet rate = 0.818286 (at node 193)
Minimum accepted packet rate = 0.494857 (at node 12)
Average accepted packet rate = 0.699095
Maximum accepted packet rate = 0.817714 (at node 92)
Minimum injected flit rate = 0.496 (at node 6)
Average injected flit rate = 0.699144
Maximum injected flit rate = 0.818286 (at node 193)
Minimum accepted flit rate = 0.494857 (at node 12)
Average accepted flit rate = 0.699095
Maximum accepted flit rate = 0.817714 (at node 92)
Average injected packet length = 1
Average accepted packet length = 1
Total in-flight flits = 9956 (9956 measured)
latency change    = 0.0745269
throughput change = 4.68293e-05
Draining all recorded packets ...
Class 0:
Remaining flits: 1053253 1055052 1055860 1056299 1057727 1057846 1057968 1058086 1058764 1058784 [...] (9996 flits)
Measured flits: 1055052 1056299 1057727 1057846 1058086 1058764 1058784 1059129 1059796 1060064 [...] (3047 flits)
Average latency for class 0 exceeded 500 cycles. Aborting simulation.
Simulation unstable, ending ...
Total run time 57.2358
