BEGIN Configuration File: ./FBF-3.conf
injection_rate = 0.3;
traffic = shuffle;
routing_function = valiant;
vc_buf_size = 16;
topology = flatfly;
use_noc_latency = 0;
hold_switch_for_packet=0;

c = 4;
k = 8;
n = 2;

x  = 8;
y  = 8;
xr = 2;
yr = 2;

packet_size  = 1;
num_vcs      = 2;
vc_allocator = separable_input_first; 
sw_allocator = separable_input_first;

alloc_iters   = 1;
sample_period = 500;

wait_for_tail_credit = 0;
use_read_write       = 0;

credit_delay   = 2;
routing_delay  = 0;
vc_alloc_delay = 1;
sw_alloc_delay = 1;
st_final_delay = 1;

input_speedup     = 1;
output_speedup    = 1;
internal_speedup  = 2.0;

warmup_periods = 3;
sim_count      = 1;

priority = none;
injection_rate_uses_flits=1;

END Configuration File: ./FBF-3.conf
Number of nodes: 256
Number of routers: 64
 Flat Bufferfly 
 k = 8 n = 2 c = 4
 each switch - total radix =  18
 # of switches = 64
 # of channels = 896
 # of nodes ( size of network ) = 256
0
Class 0:
Minimum packet latency = 5
Average packet latency = 16.0791
Maximum packet latency = 27
Minimum network latency = 5
Average network latency = 16.0791
Maximum network latency = 27
Slowest packet = 34252
Minimum flit latency = 5
Average flit latency = 16.0791
Maximum flit latency = 27
Slowest flit = 34252
Minimum fragmentation = 0
Average fragmentation = 0
Maximum fragmentation = 0
Minimum injected packet rate = 0.238 (at node 172)
Average injected packet rate = 0.299031
Maximum injected packet rate = 0.348 (at node 22)
Minimum accepted packet rate = 0.236 (at node 89)
Average accepted packet rate = 0.289641
Maximum accepted packet rate = 0.344 (at node 223)
Minimum injected flit rate = 0.238 (at node 172)
Average injected flit rate = 0.299031
Maximum injected flit rate = 0.348 (at node 22)
Minimum accepted flit rate = 0.236 (at node 89)
Average accepted flit rate = 0.289641
Maximum accepted flit rate = 0.344 (at node 223)
Average injected packet length = 1
Average accepted packet length = 1
Total in-flight flits = 1202 (0 measured)
latency change    = 1
throughput change = 1
0
Class 0:
Minimum packet latency = 5
Average packet latency = 16.0765
Maximum packet latency = 27
Minimum network latency = 5
Average network latency = 16.0765
Maximum network latency = 27
Slowest packet = 34252
Minimum flit latency = 5
Average flit latency = 16.0765
Maximum flit latency = 27
Slowest flit = 34252
Minimum fragmentation = 0
Average fragmentation = 0
Maximum fragmentation = 0
Minimum injected packet rate = 0.262 (at node 203)
Average injected packet rate = 0.299043
Maximum injected packet rate = 0.337 (at node 223)
Minimum accepted packet rate = 0.257 (at node 151)
Average accepted packet rate = 0.29402
Maximum accepted packet rate = 0.334 (at node 191)
Minimum injected flit rate = 0.262 (at node 203)
Average injected flit rate = 0.299043
Maximum injected flit rate = 0.337 (at node 223)
Minimum accepted flit rate = 0.257 (at node 151)
Average accepted flit rate = 0.29402
Maximum accepted flit rate = 0.334 (at node 191)
Average injected packet length = 1
Average accepted packet length = 1
Total in-flight flits = 1286 (0 measured)
latency change    = 0.000161714
throughput change = 0.0148932
0
Class 0:
Minimum packet latency = 5
Average packet latency = 16.1001
Maximum packet latency = 25
Minimum network latency = 5
Average network latency = 16.1001
Maximum network latency = 25
Slowest packet = 84179
Minimum flit latency = 5
Average flit latency = 16.1001
Maximum flit latency = 25
Slowest flit = 84179
Minimum fragmentation = 0
Average fragmentation = 0
Maximum fragmentation = 0
Minimum injected packet rate = 0.238 (at node 29)
Average injected packet rate = 0.298266
Maximum injected packet rate = 0.358 (at node 23)
Minimum accepted packet rate = 0.238 (at node 58)
Average accepted packet rate = 0.298992
Maximum accepted packet rate = 0.358 (at node 46)
Minimum injected flit rate = 0.238 (at node 29)
Average injected flit rate = 0.298266
Maximum injected flit rate = 0.358 (at node 23)
Minimum accepted flit rate = 0.238 (at node 58)
Average accepted flit rate = 0.298992
Maximum accepted flit rate = 0.358 (at node 46)
Average injected packet length = 1
Average accepted packet length = 1
Total in-flight flits = 1193 (0 measured)
latency change    = 0.00146519
throughput change = 0.0166314
Warmed up ...Time used is 1500 cycles
1
Class 0:
Minimum packet latency = 5
Average packet latency = 16.1019
Maximum packet latency = 25
Minimum network latency = 5
Average network latency = 16.1019
Maximum network latency = 25
Slowest packet = 133850
Minimum flit latency = 5
Average flit latency = 16.1187
Maximum flit latency = 25
Slowest flit = 133850
Minimum fragmentation = 0
Average fragmentation = 0
Maximum fragmentation = 0
Minimum injected packet rate = 0.246 (at node 138)
Average injected packet rate = 0.300984
Maximum injected packet rate = 0.358 (at node 142)
Minimum accepted packet rate = 0.252 (at node 19)
Average accepted packet rate = 0.300492
Maximum accepted packet rate = 0.358 (at node 29)
Minimum injected flit rate = 0.246 (at node 138)
Average injected flit rate = 0.300984
Maximum injected flit rate = 0.358 (at node 142)
Minimum accepted flit rate = 0.252 (at node 19)
Average accepted flit rate = 0.300492
Maximum accepted flit rate = 0.358 (at node 29)
Average injected packet length = 1
Average accepted packet length = 1
Total in-flight flits = 1256 (1256 measured)
latency change    = 0.000108649
throughput change = 0.00499181
1
Class 0:
Minimum packet latency = 5
Average packet latency = 16.1076
Maximum packet latency = 26
Minimum network latency = 5
Average network latency = 16.1076
Maximum network latency = 26
Slowest packet = 165260
Minimum flit latency = 5
Average flit latency = 16.1159
Maximum flit latency = 26
Slowest flit = 165260
Minimum fragmentation = 0
Average fragmentation = 0
Maximum fragmentation = 0
Minimum injected packet rate = 0.266 (at node 138)
Average injected packet rate = 0.300621
Maximum injected packet rate = 0.334 (at node 30)
Minimum accepted packet rate = 0.266 (at node 21)
Average accepted packet rate = 0.300348
Maximum accepted packet rate = 0.335 (at node 106)
Minimum injected flit rate = 0.266 (at node 138)
Average injected flit rate = 0.300621
Maximum injected flit rate = 0.334 (at node 30)
Minimum accepted flit rate = 0.266 (at node 21)
Average accepted flit rate = 0.300348
Maximum accepted flit rate = 0.335 (at node 106)
Average injected packet length = 1
Average accepted packet length = 1
Total in-flight flits = 1263 (1263 measured)
latency change    = 0.000356981
throughput change = 0.000481213
1
Class 0:
Minimum packet latency = 5
Average packet latency = 16.1044
Maximum packet latency = 27
Minimum network latency = 5
Average network latency = 16.1044
Maximum network latency = 27
Slowest packet = 226589
Minimum flit latency = 5
Average flit latency = 16.1099
Maximum flit latency = 27
Slowest flit = 226589
Minimum fragmentation = 0
Average fragmentation = 0
Maximum fragmentation = 0
Minimum injected packet rate = 0.268 (at node 39)
Average injected packet rate = 0.300388
Maximum injected packet rate = 0.336 (at node 142)
Minimum accepted packet rate = 0.268 (at node 78)
Average accepted packet rate = 0.300128
Maximum accepted packet rate = 0.334667 (at node 29)
Minimum injected flit rate = 0.268 (at node 39)
Average injected flit rate = 0.300388
Maximum injected flit rate = 0.336 (at node 142)
Minimum accepted flit rate = 0.268 (at node 78)
Average accepted flit rate = 0.300128
Maximum accepted flit rate = 0.334667 (at node 29)
Average injected packet length = 1
Average accepted packet length = 1
Total in-flight flits = 1293 (1293 measured)
latency change    = 0.00020176
throughput change = 0.000733195
Draining all recorded packets ...
Draining remaining packets ...
Time taken is 3046 cycles
====== Traffic class 0 ======
Overall minimum packet latency = 5 (1 samples)
Overall average packet latency = 16.11 (1 samples)
Overall maximum packet latency = 27 (1 samples)
Overall minimum network latency = 5 (1 samples)
Overall average network latency = 16.11 (1 samples)
Overall maximum network latency = 27 (1 samples)
Overall minimum flit latency = 5 (1 samples)
Overall average flit latency = 16.115 (1 samples)
Overall maximum flit latency = 27 (1 samples)
Overall minimum fragmentation = 0 (1 samples)
Overall average fragmentation = 0 (1 samples)
Overall maximum fragmentation = 0 (1 samples)
Overall minimum injected packet rate = 0.268 (1 samples)
Overall average injected packet rate = 0.300388 (1 samples)
Overall maximum injected packet rate = 0.336 (1 samples)
Overall minimum accepted packet rate = 0.268 (1 samples)
Overall average accepted packet rate = 0.300128 (1 samples)
Overall maximum accepted packet rate = 0.334667 (1 samples)
Overall minimum injected flit rate = 0.268 (1 samples)
Overall average injected flit rate = 0.300388 (1 samples)
Overall maximum injected flit rate = 0.336 (1 samples)
Overall minimum accepted flit rate = 0.268 (1 samples)
Overall average accepted flit rate = 0.300128 (1 samples)
Overall maximum accepted flit rate = 0.334667 (1 samples)
Overall average injected packet size = 1 (1 samples)
Overall average accepted packet size = 1 (1 samples)
Overall average hops = 4.42678 (1 samples)
Total run time 11.0364
