BEGIN Configuration File: ./FBF-3.conf
injection_rate = 0.5;
traffic = uniform;
routing_function = ran_min;
vc_buf_size = 16;
topology = flatfly;
use_noc_latency = 0;
hold_switch_for_packet=0;

c = 4;
k = 8;
n = 2;

x  = 8;
y  = 8;
xr = 2;
yr = 2;

packet_size  = 1;
num_vcs      = 2;
vc_allocator = separable_input_first; 
sw_allocator = separable_input_first;

alloc_iters   = 1;
sample_period = 500;

wait_for_tail_credit = 0;
use_read_write       = 0;

credit_delay   = 2;
routing_delay  = 0;
vc_alloc_delay = 1;
sw_alloc_delay = 1;
st_final_delay = 1;

input_speedup     = 1;
output_speedup    = 1;
internal_speedup  = 2.0;

warmup_periods = 3;
sim_count      = 1;

priority = none;
injection_rate_uses_flits=1;

END Configuration File: ./FBF-3.conf
Number of nodes: 256
Number of routers: 64
 Flat Bufferfly 
 k = 8 n = 2 c = 4
 each switch - total radix =  18
 # of switches = 64
 # of channels = 896
 # of nodes ( size of network ) = 256
0
Class 0:
Minimum packet latency = 5
Average packet latency = 10.9611
Maximum packet latency = 21
Minimum network latency = 5
Average network latency = 10.9611
Maximum network latency = 21
Slowest packet = 7106
Minimum flit latency = 5
Average flit latency = 10.9611
Maximum flit latency = 21
Slowest flit = 7106
Minimum fragmentation = 0
Average fragmentation = 0
Maximum fragmentation = 0
Minimum injected packet rate = 0.426 (at node 110)
Average injected packet rate = 0.499609
Maximum injected packet rate = 0.562 (at node 22)
Minimum accepted packet rate = 0.404 (at node 110)
Average accepted packet rate = 0.488695
Maximum accepted packet rate = 0.586 (at node 186)
Minimum injected flit rate = 0.426 (at node 110)
Average injected flit rate = 0.499609
Maximum injected flit rate = 0.562 (at node 22)
Minimum accepted flit rate = 0.404 (at node 110)
Average accepted flit rate = 0.488695
Maximum accepted flit rate = 0.586 (at node 186)
Average injected packet length = 1
Average accepted packet length = 1
Total in-flight flits = 1397 (0 measured)
latency change    = 1
throughput change = 1
0
Class 0:
Minimum packet latency = 5
Average packet latency = 10.9573
Maximum packet latency = 23
Minimum network latency = 5
Average network latency = 10.9573
Maximum network latency = 23
Slowest packet = 122996
Minimum flit latency = 5
Average flit latency = 10.9573
Maximum flit latency = 23
Slowest flit = 122996
Minimum fragmentation = 0
Average fragmentation = 0
Maximum fragmentation = 0
Minimum injected packet rate = 0.448 (at node 173)
Average injected packet rate = 0.499969
Maximum injected packet rate = 0.541 (at node 74)
Minimum accepted packet rate = 0.434 (at node 110)
Average accepted packet rate = 0.494406
Maximum accepted packet rate = 0.563 (at node 186)
Minimum injected flit rate = 0.448 (at node 173)
Average injected flit rate = 0.499969
Maximum injected flit rate = 0.541 (at node 74)
Minimum accepted flit rate = 0.434 (at node 110)
Average accepted flit rate = 0.494406
Maximum accepted flit rate = 0.563 (at node 186)
Average injected packet length = 1
Average accepted packet length = 1
Total in-flight flits = 1424 (0 measured)
latency change    = 0.000353453
throughput change = 0.0115511
0
Class 0:
Minimum packet latency = 5
Average packet latency = 10.9591
Maximum packet latency = 20
Minimum network latency = 5
Average network latency = 10.9591
Maximum network latency = 20
Slowest packet = 151937
Minimum flit latency = 5
Average flit latency = 10.9591
Maximum flit latency = 20
Slowest flit = 151937
Minimum fragmentation = 0
Average fragmentation = 0
Maximum fragmentation = 0
Minimum injected packet rate = 0.444 (at node 152)
Average injected packet rate = 0.500117
Maximum injected packet rate = 0.562 (at node 51)
Minimum accepted packet rate = 0.418 (at node 115)
Average accepted packet rate = 0.500359
Maximum accepted packet rate = 0.626 (at node 181)
Minimum injected flit rate = 0.444 (at node 152)
Average injected flit rate = 0.500117
Maximum injected flit rate = 0.562 (at node 51)
Minimum accepted flit rate = 0.418 (at node 115)
Average accepted flit rate = 0.500359
Maximum accepted flit rate = 0.626 (at node 181)
Average injected packet length = 1
Average accepted packet length = 1
Total in-flight flits = 1393 (0 measured)
latency change    = 0.000168211
throughput change = 0.0118977
Warmed up ...Time used is 1500 cycles
1
Class 0:
Minimum packet latency = 5
Average packet latency = 10.9444
Maximum packet latency = 20
Minimum network latency = 5
Average network latency = 10.9444
Maximum network latency = 20
Slowest packet = 251863
Minimum flit latency = 5
Average flit latency = 10.9505
Maximum flit latency = 20
Slowest flit = 251863
Minimum fragmentation = 0
Average fragmentation = 0
Maximum fragmentation = 0
Minimum injected packet rate = 0.44 (at node 50)
Average injected packet rate = 0.501266
Maximum injected packet rate = 0.562 (at node 115)
Minimum accepted packet rate = 0.412 (at node 136)
Average accepted packet rate = 0.501109
Maximum accepted packet rate = 0.594 (at node 121)
Minimum injected flit rate = 0.44 (at node 50)
Average injected flit rate = 0.501266
Maximum injected flit rate = 0.562 (at node 115)
Minimum accepted flit rate = 0.412 (at node 136)
Average accepted flit rate = 0.501109
Maximum accepted flit rate = 0.594 (at node 121)
Average injected packet length = 1
Average accepted packet length = 1
Total in-flight flits = 1413 (1413 measured)
latency change    = 0.00134115
throughput change = 0.00149668
1
Class 0:
Minimum packet latency = 5
Average packet latency = 10.9591
Maximum packet latency = 20
Minimum network latency = 5
Average network latency = 10.9591
Maximum network latency = 20
Slowest packet = 251863
Minimum flit latency = 5
Average flit latency = 10.9619
Maximum flit latency = 20
Slowest flit = 251863
Minimum fragmentation = 0
Average fragmentation = 0
Maximum fragmentation = 0
Minimum injected packet rate = 0.46 (at node 50)
Average injected packet rate = 0.500695
Maximum injected packet rate = 0.546 (at node 115)
Minimum accepted packet rate = 0.436 (at node 21)
Average accepted packet rate = 0.500844
Maximum accepted packet rate = 0.562 (at node 241)
Minimum injected flit rate = 0.46 (at node 50)
Average injected flit rate = 0.500695
Maximum injected flit rate = 0.546 (at node 115)
Minimum accepted flit rate = 0.436 (at node 21)
Average accepted flit rate = 0.500844
Maximum accepted flit rate = 0.562 (at node 241)
Average injected packet length = 1
Average accepted packet length = 1
Total in-flight flits = 1355 (1355 measured)
latency change    = 0.00133512
throughput change = 0.000530355
1
Class 0:
Minimum packet latency = 5
Average packet latency = 10.9586
Maximum packet latency = 21
Minimum network latency = 5
Average network latency = 10.9586
Maximum network latency = 21
Slowest packet = 374553
Minimum flit latency = 5
Average flit latency = 10.9605
Maximum flit latency = 21
Slowest flit = 374553
Minimum fragmentation = 0
Average fragmentation = 0
Maximum fragmentation = 0
Minimum injected packet rate = 0.465333 (at node 252)
Average injected packet rate = 0.500591
Maximum injected packet rate = 0.534 (at node 42)
Minimum accepted packet rate = 0.444 (at node 21)
Average accepted packet rate = 0.500469
Maximum accepted packet rate = 0.552 (at node 244)
Minimum injected flit rate = 0.465333 (at node 252)
Average injected flit rate = 0.500591
Maximum injected flit rate = 0.534 (at node 42)
Minimum accepted flit rate = 0.444 (at node 21)
Average accepted flit rate = 0.500469
Maximum accepted flit rate = 0.552 (at node 244)
Average injected packet length = 1
Average accepted packet length = 1
Total in-flight flits = 1440 (1440 measured)
latency change    = 4.3229e-05
throughput change = 0.000749298
Draining all recorded packets ...
Draining remaining packets ...
Time taken is 3033 cycles
====== Traffic class 0 ======
Overall minimum packet latency = 5 (1 samples)
Overall average packet latency = 10.9611 (1 samples)
Overall maximum packet latency = 21 (1 samples)
Overall minimum network latency = 5 (1 samples)
Overall average network latency = 10.9611 (1 samples)
Overall maximum network latency = 21 (1 samples)
Overall minimum flit latency = 5 (1 samples)
Overall average flit latency = 10.9627 (1 samples)
Overall maximum flit latency = 21 (1 samples)
Overall minimum fragmentation = 0 (1 samples)
Overall average fragmentation = 0 (1 samples)
Overall maximum fragmentation = 0 (1 samples)
Overall minimum injected packet rate = 0.465333 (1 samples)
Overall average injected packet rate = 0.500591 (1 samples)
Overall maximum injected packet rate = 0.534 (1 samples)
Overall minimum accepted packet rate = 0.444 (1 samples)
Overall average accepted packet rate = 0.500469 (1 samples)
Overall maximum accepted packet rate = 0.552 (1 samples)
Overall minimum injected flit rate = 0.465333 (1 samples)
Overall average injected flit rate = 0.500591 (1 samples)
Overall maximum injected flit rate = 0.534 (1 samples)
Overall minimum accepted flit rate = 0.444 (1 samples)
Overall average accepted flit rate = 0.500469 (1 samples)
Overall maximum accepted flit rate = 0.552 (1 samples)
Overall average injected packet size = 1 (1 samples)
Overall average accepted packet size = 1 (1 samples)
Overall average hops = 2.74914 (1 samples)
Total run time 12.6978
