BEGIN Configuration File: ./FBF-3.conf
injection_rate = 0.4;
traffic = asymmetric;
routing_function = ugal;
vc_buf_size = 16;
topology = flatfly;
use_noc_latency = 0;
hold_switch_for_packet=0;

c = 4;
k = 8;
n = 2;

x  = 8;
y  = 8;
xr = 2;
yr = 2;

packet_size  = 1;
num_vcs      = 2;
vc_allocator = separable_input_first; 
sw_allocator = separable_input_first;

alloc_iters   = 1;
sample_period = 500;

wait_for_tail_credit = 0;
use_read_write       = 0;

credit_delay   = 2;
routing_delay  = 0;
vc_alloc_delay = 1;
sw_alloc_delay = 1;
st_final_delay = 1;

input_speedup     = 1;
output_speedup    = 1;
internal_speedup  = 2.0;

warmup_periods = 3;
sim_count      = 1;

priority = none;
injection_rate_uses_flits=1;

END Configuration File: ./FBF-3.conf
Number of nodes: 256
Number of routers: 64
 Flat Bufferfly 
 k = 8 n = 2 c = 4
 each switch - total radix =  18
 # of switches = 64
 # of channels = 896
 # of nodes ( size of network ) = 256
0
Class 0:
Minimum packet latency = 5
Average packet latency = 7.44861
Maximum packet latency = 20
Minimum network latency = 5
Average network latency = 7.44861
Maximum network latency = 20
Slowest packet = 14688
Minimum flit latency = 5
Average flit latency = 7.44861
Maximum flit latency = 20
Slowest flit = 14688
Minimum fragmentation = 0
Average fragmentation = 0
Maximum fragmentation = 0
Minimum injected packet rate = 0.334 (at node 172)
Average injected packet rate = 0.398383
Maximum injected packet rate = 0.452 (at node 149)
Minimum accepted packet rate = 0.316 (at node 16)
Average accepted packet rate = 0.3925
Maximum accepted packet rate = 0.464 (at node 102)
Minimum injected flit rate = 0.334 (at node 172)
Average injected flit rate = 0.398383
Maximum injected flit rate = 0.452 (at node 149)
Minimum accepted flit rate = 0.316 (at node 16)
Average accepted flit rate = 0.3925
Maximum accepted flit rate = 0.464 (at node 102)
Average injected packet length = 1
Average accepted packet length = 1
Total in-flight flits = 753 (0 measured)
latency change    = 1
throughput change = 1
0
Class 0:
Minimum packet latency = 5
Average packet latency = 7.45621
Maximum packet latency = 20
Minimum network latency = 5
Average network latency = 7.45621
Maximum network latency = 20
Slowest packet = 14688
Minimum flit latency = 5
Average flit latency = 7.45621
Maximum flit latency = 20
Slowest flit = 14688
Minimum fragmentation = 0
Average fragmentation = 0
Maximum fragmentation = 0
Minimum injected packet rate = 0.363 (at node 53)
Average injected packet rate = 0.399004
Maximum injected packet rate = 0.439 (at node 74)
Minimum accepted packet rate = 0.35 (at node 16)
Average accepted packet rate = 0.395809
Maximum accepted packet rate = 0.45 (at node 151)
Minimum injected flit rate = 0.363 (at node 53)
Average injected flit rate = 0.399004
Maximum injected flit rate = 0.439 (at node 74)
Minimum accepted flit rate = 0.35 (at node 16)
Average accepted flit rate = 0.395809
Maximum accepted flit rate = 0.45 (at node 151)
Average injected packet length = 1
Average accepted packet length = 1
Total in-flight flits = 818 (0 measured)
latency change    = 0.00101921
throughput change = 0.00835908
0
Class 0:
Minimum packet latency = 5
Average packet latency = 7.44121
Maximum packet latency = 18
Minimum network latency = 5
Average network latency = 7.44121
Maximum network latency = 18
Slowest packet = 109840
Minimum flit latency = 5
Average flit latency = 7.44121
Maximum flit latency = 18
Slowest flit = 109840
Minimum fragmentation = 0
Average fragmentation = 0
Maximum fragmentation = 0
Minimum injected packet rate = 0.34 (at node 186)
Average injected packet rate = 0.399008
Maximum injected packet rate = 0.46 (at node 51)
Minimum accepted packet rate = 0.328 (at node 43)
Average accepted packet rate = 0.399648
Maximum accepted packet rate = 0.462 (at node 132)
Minimum injected flit rate = 0.34 (at node 186)
Average injected flit rate = 0.399008
Maximum injected flit rate = 0.46 (at node 51)
Minimum accepted flit rate = 0.328 (at node 43)
Average accepted flit rate = 0.399648
Maximum accepted flit rate = 0.462 (at node 132)
Average injected packet length = 1
Average accepted packet length = 1
Total in-flight flits = 736 (0 measured)
latency change    = 0.00201554
throughput change = 0.00960805
Warmed up ...Time used is 1500 cycles
1
Class 0:
Minimum packet latency = 5
Average packet latency = 7.45867
Maximum packet latency = 22
Minimum network latency = 5
Average network latency = 7.45867
Maximum network latency = 22
Slowest packet = 190290
Minimum flit latency = 5
Average flit latency = 7.47216
Maximum flit latency = 22
Slowest flit = 190290
Minimum fragmentation = 0
Average fragmentation = 0
Maximum fragmentation = 0
Minimum injected packet rate = 0.332 (at node 233)
Average injected packet rate = 0.401258
Maximum injected packet rate = 0.464 (at node 239)
Minimum accepted packet rate = 0.326 (at node 9)
Average accepted packet rate = 0.401047
Maximum accepted packet rate = 0.478 (at node 170)
Minimum injected flit rate = 0.332 (at node 233)
Average injected flit rate = 0.401258
Maximum injected flit rate = 0.464 (at node 239)
Minimum accepted flit rate = 0.326 (at node 9)
Average accepted flit rate = 0.401047
Maximum accepted flit rate = 0.478 (at node 170)
Average injected packet length = 1
Average accepted packet length = 1
Total in-flight flits = 763 (763 measured)
latency change    = 0.00234172
throughput change = 0.00348697
1
Class 0:
Minimum packet latency = 5
Average packet latency = 7.45224
Maximum packet latency = 22
Minimum network latency = 5
Average network latency = 7.45224
Maximum network latency = 22
Slowest packet = 190290
Minimum flit latency = 5
Average flit latency = 7.45905
Maximum flit latency = 22
Slowest flit = 190290
Minimum fragmentation = 0
Average fragmentation = 0
Maximum fragmentation = 0
Minimum injected packet rate = 0.367 (at node 171)
Average injected packet rate = 0.400414
Maximum injected packet rate = 0.437 (at node 220)
Minimum accepted packet rate = 0.352 (at node 105)
Average accepted packet rate = 0.400406
Maximum accepted packet rate = 0.463 (at node 201)
Minimum injected flit rate = 0.367 (at node 171)
Average injected flit rate = 0.400414
Maximum injected flit rate = 0.437 (at node 220)
Minimum accepted flit rate = 0.352 (at node 105)
Average accepted flit rate = 0.400406
Maximum accepted flit rate = 0.463 (at node 201)
Average injected packet length = 1
Average accepted packet length = 1
Total in-flight flits = 738 (738 measured)
latency change    = 0.000862819
throughput change = 0.00159994
1
Class 0:
Minimum packet latency = 5
Average packet latency = 7.44877
Maximum packet latency = 25
Minimum network latency = 5
Average network latency = 7.44877
Maximum network latency = 25
Slowest packet = 301929
Minimum flit latency = 5
Average flit latency = 7.45332
Maximum flit latency = 25
Slowest flit = 301929
Minimum fragmentation = 0
Average fragmentation = 0
Maximum fragmentation = 0
Minimum injected packet rate = 0.364 (at node 252)
Average injected packet rate = 0.400297
Maximum injected packet rate = 0.432 (at node 142)
Minimum accepted packet rate = 0.360667 (at node 124)
Average accepted packet rate = 0.400148
Maximum accepted packet rate = 0.455333 (at node 17)
Minimum injected flit rate = 0.364 (at node 252)
Average injected flit rate = 0.400297
Maximum injected flit rate = 0.432 (at node 142)
Minimum accepted flit rate = 0.360667 (at node 124)
Average accepted flit rate = 0.400148
Maximum accepted flit rate = 0.455333 (at node 17)
Average injected packet length = 1
Average accepted packet length = 1
Total in-flight flits = 793 (793 measured)
latency change    = 0.000466742
throughput change = 0.000644292
Draining all recorded packets ...
Draining remaining packets ...
Time taken is 3032 cycles
====== Traffic class 0 ======
Overall minimum packet latency = 5 (1 samples)
Overall average packet latency = 7.4539 (1 samples)
Overall maximum packet latency = 25 (1 samples)
Overall minimum network latency = 5 (1 samples)
Overall average network latency = 7.4539 (1 samples)
Overall maximum network latency = 25 (1 samples)
Overall minimum flit latency = 5 (1 samples)
Overall average flit latency = 7.45865 (1 samples)
Overall maximum flit latency = 25 (1 samples)
Overall minimum fragmentation = 0 (1 samples)
Overall average fragmentation = 0 (1 samples)
Overall maximum fragmentation = 0 (1 samples)
Overall minimum injected packet rate = 0.364 (1 samples)
Overall average injected packet rate = 0.400297 (1 samples)
Overall maximum injected packet rate = 0.432 (1 samples)
Overall minimum accepted packet rate = 0.360667 (1 samples)
Overall average accepted packet rate = 0.400148 (1 samples)
Overall maximum accepted packet rate = 0.455333 (1 samples)
Overall minimum injected flit rate = 0.364 (1 samples)
Overall average injected flit rate = 0.400297 (1 samples)
Overall maximum injected flit rate = 0.432 (1 samples)
Overall minimum accepted flit rate = 0.360667 (1 samples)
Overall average accepted flit rate = 0.400148 (1 samples)
Overall maximum accepted flit rate = 0.455333 (1 samples)
Overall average injected packet size = 1 (1 samples)
Overall average accepted packet size = 1 (1 samples)
Overall average hops = 1.68207 (1 samples)
Total run time 7.39269
