BEGIN Configuration File: ./FBF-3.conf
injection_rate = 0.2;
traffic = shuffle;
routing_function = ugal;
vc_buf_size = 16;
topology = flatfly;
use_noc_latency = 0;
hold_switch_for_packet=0;

c = 4;
k = 8;
n = 2;

x  = 8;
y  = 8;
xr = 2;
yr = 2;

packet_size  = 1;
num_vcs      = 2;
vc_allocator = separable_input_first; 
sw_allocator = separable_input_first;

alloc_iters   = 1;
sample_period = 500;

wait_for_tail_credit = 0;
use_read_write       = 0;

credit_delay   = 2;
routing_delay  = 0;
vc_alloc_delay = 1;
sw_alloc_delay = 1;
st_final_delay = 1;

input_speedup     = 1;
output_speedup    = 1;
internal_speedup  = 2.0;

warmup_periods = 3;
sim_count      = 1;

priority = none;
injection_rate_uses_flits=1;

END Configuration File: ./FBF-3.conf
Number of nodes: 256
Number of routers: 64
 Flat Bufferfly 
 k = 8 n = 2 c = 4
 each switch - total radix =  18
 # of switches = 64
 # of channels = 896
 # of nodes ( size of network ) = 256
0
Class 0:
Minimum packet latency = 5
Average packet latency = 11.976
Maximum packet latency = 21
Minimum network latency = 5
Average network latency = 11.976
Maximum network latency = 21
Slowest packet = 4524
Minimum flit latency = 5
Average flit latency = 11.976
Maximum flit latency = 21
Slowest flit = 4524
Minimum fragmentation = 0
Average fragmentation = 0
Maximum fragmentation = 0
Minimum injected packet rate = 0.158 (at node 1)
Average injected packet rate = 0.198797
Maximum injected packet rate = 0.254 (at node 239)
Minimum accepted packet rate = 0.152 (at node 2)
Average accepted packet rate = 0.194094
Maximum accepted packet rate = 0.254 (at node 223)
Minimum injected flit rate = 0.158 (at node 1)
Average injected flit rate = 0.198797
Maximum injected flit rate = 0.254 (at node 239)
Minimum accepted flit rate = 0.152 (at node 2)
Average accepted flit rate = 0.194094
Maximum accepted flit rate = 0.254 (at node 223)
Average injected packet length = 1
Average accepted packet length = 1
Total in-flight flits = 602 (0 measured)
latency change    = 1
throughput change = 1
0
Class 0:
Minimum packet latency = 5
Average packet latency = 11.9856
Maximum packet latency = 22
Minimum network latency = 5
Average network latency = 11.9856
Maximum network latency = 22
Slowest packet = 37319
Minimum flit latency = 5
Average flit latency = 11.9856
Maximum flit latency = 22
Slowest flit = 37319
Minimum fragmentation = 0
Average fragmentation = 0
Maximum fragmentation = 0
Minimum injected packet rate = 0.17 (at node 104)
Average injected packet rate = 0.199156
Maximum injected packet rate = 0.232 (at node 22)
Minimum accepted packet rate = 0.166 (at node 208)
Average accepted packet rate = 0.196695
Maximum accepted packet rate = 0.232 (at node 223)
Minimum injected flit rate = 0.17 (at node 104)
Average injected flit rate = 0.199156
Maximum injected flit rate = 0.232 (at node 22)
Minimum accepted flit rate = 0.166 (at node 208)
Average accepted flit rate = 0.196695
Maximum accepted flit rate = 0.232 (at node 223)
Average injected packet length = 1
Average accepted packet length = 1
Total in-flight flits = 630 (0 measured)
latency change    = 0.000801919
throughput change = 0.0132264
0
Class 0:
Minimum packet latency = 5
Average packet latency = 12.0785
Maximum packet latency = 23
Minimum network latency = 5
Average network latency = 12.0785
Maximum network latency = 23
Slowest packet = 66922
Minimum flit latency = 5
Average flit latency = 12.0785
Maximum flit latency = 23
Slowest flit = 66922
Minimum fragmentation = 0
Average fragmentation = 0
Maximum fragmentation = 0
Minimum injected packet rate = 0.148 (at node 29)
Average injected packet rate = 0.199695
Maximum injected packet rate = 0.264 (at node 39)
Minimum accepted packet rate = 0.142 (at node 76)
Average accepted packet rate = 0.199953
Maximum accepted packet rate = 0.264 (at node 78)
Minimum injected flit rate = 0.148 (at node 29)
Average injected flit rate = 0.199695
Maximum injected flit rate = 0.264 (at node 39)
Minimum accepted flit rate = 0.142 (at node 76)
Average accepted flit rate = 0.199953
Maximum accepted flit rate = 0.264 (at node 78)
Average injected packet length = 1
Average accepted packet length = 1
Total in-flight flits = 597 (0 measured)
latency change    = 0.00768913
throughput change = 0.0162929
Warmed up ...Time used is 1500 cycles
1
Class 0:
Minimum packet latency = 5
Average packet latency = 12.0268
Maximum packet latency = 23
Minimum network latency = 5
Average network latency = 12.0268
Maximum network latency = 23
Slowest packet = 81185
Minimum flit latency = 5
Average flit latency = 12.0414
Maximum flit latency = 23
Slowest flit = 81185
Minimum fragmentation = 0
Average fragmentation = 0
Maximum fragmentation = 0
Minimum injected packet rate = 0.142 (at node 174)
Average injected packet rate = 0.1995
Maximum injected packet rate = 0.252 (at node 122)
Minimum accepted packet rate = 0.144 (at node 93)
Average accepted packet rate = 0.199203
Maximum accepted packet rate = 0.258 (at node 244)
Minimum injected flit rate = 0.142 (at node 174)
Average injected flit rate = 0.1995
Maximum injected flit rate = 0.252 (at node 122)
Minimum accepted flit rate = 0.144 (at node 93)
Average accepted flit rate = 0.199203
Maximum accepted flit rate = 0.258 (at node 244)
Average injected packet length = 1
Average accepted packet length = 1
Total in-flight flits = 635 (635 measured)
latency change    = 0.00429612
throughput change = 0.003765
1
Class 0:
Minimum packet latency = 5
Average packet latency = 12.0369
Maximum packet latency = 23
Minimum network latency = 5
Average network latency = 12.0369
Maximum network latency = 23
Slowest packet = 81185
Minimum flit latency = 5
Average flit latency = 12.044
Maximum flit latency = 23
Slowest flit = 81185
Minimum fragmentation = 0
Average fragmentation = 0
Maximum fragmentation = 0
Minimum injected packet rate = 0.165 (at node 191)
Average injected packet rate = 0.200563
Maximum injected packet rate = 0.24 (at node 53)
Minimum accepted packet rate = 0.165 (at node 93)
Average accepted packet rate = 0.200391
Maximum accepted packet rate = 0.241 (at node 106)
Minimum injected flit rate = 0.165 (at node 191)
Average injected flit rate = 0.200563
Maximum injected flit rate = 0.24 (at node 53)
Minimum accepted flit rate = 0.165 (at node 93)
Average accepted flit rate = 0.200391
Maximum accepted flit rate = 0.241 (at node 106)
Average injected packet length = 1
Average accepted packet length = 1
Total in-flight flits = 641 (641 measured)
latency change    = 0.00083373
throughput change = 0.00592593
1
Class 0:
Minimum packet latency = 5
Average packet latency = 12.0414
Maximum packet latency = 23
Minimum network latency = 5
Average network latency = 12.0414
Maximum network latency = 23
Slowest packet = 81185
Minimum flit latency = 5
Average flit latency = 12.0461
Maximum flit latency = 23
Slowest flit = 81185
Minimum fragmentation = 0
Average fragmentation = 0
Maximum fragmentation = 0
Minimum injected packet rate = 0.169333 (at node 174)
Average injected packet rate = 0.200125
Maximum injected packet rate = 0.230667 (at node 163)
Minimum accepted packet rate = 0.166 (at node 93)
Average accepted packet rate = 0.200031
Maximum accepted packet rate = 0.228667 (at node 60)
Minimum injected flit rate = 0.169333 (at node 174)
Average injected flit rate = 0.200125
Maximum injected flit rate = 0.230667 (at node 163)
Minimum accepted flit rate = 0.166 (at node 93)
Average accepted flit rate = 0.200031
Maximum accepted flit rate = 0.228667 (at node 60)
Average injected packet length = 1
Average accepted packet length = 1
Total in-flight flits = 633 (633 measured)
latency change    = 0.000375472
throughput change = 0.00179659
Draining all recorded packets ...
Draining remaining packets ...
Time taken is 3039 cycles
====== Traffic class 0 ======
Overall minimum packet latency = 5 (1 samples)
Overall average packet latency = 12.0477 (1 samples)
Overall maximum packet latency = 23 (1 samples)
Overall minimum network latency = 5 (1 samples)
Overall average network latency = 12.0477 (1 samples)
Overall maximum network latency = 23 (1 samples)
Overall minimum flit latency = 5 (1 samples)
Overall average flit latency = 12.0527 (1 samples)
Overall maximum flit latency = 23 (1 samples)
Overall minimum fragmentation = 0 (1 samples)
Overall average fragmentation = 0 (1 samples)
Overall maximum fragmentation = 0 (1 samples)
Overall minimum injected packet rate = 0.169333 (1 samples)
Overall average injected packet rate = 0.200125 (1 samples)
Overall maximum injected packet rate = 0.230667 (1 samples)
Overall minimum accepted packet rate = 0.166 (1 samples)
Overall average accepted packet rate = 0.200031 (1 samples)
Overall maximum accepted packet rate = 0.228667 (1 samples)
Overall minimum injected flit rate = 0.169333 (1 samples)
Overall average injected flit rate = 0.200125 (1 samples)
Overall maximum injected flit rate = 0.230667 (1 samples)
Overall minimum accepted flit rate = 0.166 (1 samples)
Overall average accepted flit rate = 0.200031 (1 samples)
Overall maximum accepted flit rate = 0.228667 (1 samples)
Overall average injected packet size = 1 (1 samples)
Overall average accepted packet size = 1 (1 samples)
Overall average hops = 3.23613 (1 samples)
Total run time 6.35347
