BEGIN Configuration File: ./FBF-3.conf
injection_rate = 0.5;
traffic = asymmetric;
routing_function = ran_min;
vc_buf_size = 16;
topology = flatfly;
use_noc_latency = 0;
hold_switch_for_packet=0;

c = 4;
k = 8;
n = 2;

x  = 8;
y  = 8;
xr = 2;
yr = 2;

packet_size  = 1;
num_vcs      = 2;
vc_allocator = separable_input_first; 
sw_allocator = separable_input_first;

alloc_iters   = 1;
sample_period = 500;

wait_for_tail_credit = 0;
use_read_write       = 0;

credit_delay   = 2;
routing_delay  = 0;
vc_alloc_delay = 1;
sw_alloc_delay = 1;
st_final_delay = 1;

input_speedup     = 1;
output_speedup    = 1;
internal_speedup  = 2.0;

warmup_periods = 3;
sim_count      = 1;

priority = none;
injection_rate_uses_flits=1;

END Configuration File: ./FBF-3.conf
Number of nodes: 256
Number of routers: 64
 Flat Bufferfly 
 k = 8 n = 2 c = 4
 each switch - total radix =  18
 # of switches = 64
 # of channels = 896
 # of nodes ( size of network ) = 256
0
Class 0:
Minimum packet latency = 5
Average packet latency = 12.3205
Maximum packet latency = 90
Minimum network latency = 5
Average network latency = 12.3205
Maximum network latency = 90
Slowest packet = 51366
Minimum flit latency = 5
Average flit latency = 12.3205
Maximum flit latency = 90
Slowest flit = 51366
Minimum fragmentation = 0
Average fragmentation = 0
Maximum fragmentation = 0
Minimum injected packet rate = 0.428 (at node 110)
Average injected packet rate = 0.499602
Maximum injected packet rate = 0.564 (at node 22)
Minimum accepted packet rate = 0.394 (at node 65)
Average accepted packet rate = 0.483359
Maximum accepted packet rate = 0.552 (at node 82)
Minimum injected flit rate = 0.428 (at node 110)
Average injected flit rate = 0.499602
Maximum injected flit rate = 0.564 (at node 22)
Minimum accepted flit rate = 0.394 (at node 65)
Average accepted flit rate = 0.483359
Maximum accepted flit rate = 0.552 (at node 82)
Average injected packet length = 1
Average accepted packet length = 1
Total in-flight flits = 2079 (0 measured)
latency change    = 1
throughput change = 1
0
Class 0:
Minimum packet latency = 5
Average packet latency = 15.2393
Maximum packet latency = 133
Minimum network latency = 5
Average network latency = 15.2166
Maximum network latency = 122
Slowest packet = 64222
Minimum flit latency = 5
Average flit latency = 15.2166
Maximum flit latency = 122
Slowest flit = 64222
Minimum fragmentation = 0
Average fragmentation = 0
Maximum fragmentation = 0
Minimum injected packet rate = 0.451 (at node 110)
Average injected packet rate = 0.499945
Maximum injected packet rate = 0.537 (at node 20)
Minimum accepted packet rate = 0.432 (at node 147)
Average accepted packet rate = 0.490426
Maximum accepted packet rate = 0.533 (at node 203)
Minimum injected flit rate = 0.451 (at node 110)
Average injected flit rate = 0.499945
Maximum injected flit rate = 0.537 (at node 20)
Minimum accepted flit rate = 0.432 (at node 147)
Average accepted flit rate = 0.490426
Maximum accepted flit rate = 0.533 (at node 203)
Average injected packet length = 1
Average accepted packet length = 1
Total in-flight flits = 2438 (0 measured)
latency change    = 0.191526
throughput change = 0.0144087
0
Class 0:
Minimum packet latency = 5
Average packet latency = 20.882
Maximum packet latency = 130
Minimum network latency = 5
Average network latency = 20.8522
Maximum network latency = 127
Slowest packet = 116845
Minimum flit latency = 5
Average flit latency = 20.8522
Maximum flit latency = 127
Slowest flit = 172436
Minimum fragmentation = 0
Average fragmentation = 0
Maximum fragmentation = 0
Minimum injected packet rate = 0.444 (at node 66)
Average injected packet rate = 0.500031
Maximum injected packet rate = 0.566 (at node 9)
Minimum accepted packet rate = 0.434 (at node 86)
Average accepted packet rate = 0.496109
Maximum accepted packet rate = 0.576 (at node 51)
Minimum injected flit rate = 0.444 (at node 66)
Average injected flit rate = 0.500031
Maximum injected flit rate = 0.566 (at node 9)
Minimum accepted flit rate = 0.434 (at node 86)
Average accepted flit rate = 0.496109
Maximum accepted flit rate = 0.576 (at node 51)
Average injected packet length = 1
Average accepted packet length = 1
Total in-flight flits = 2940 (0 measured)
latency change    = 0.270221
throughput change = 0.0114563
Warmed up ...Time used is 1500 cycles
1
Class 0:
Minimum packet latency = 5
Average packet latency = 24.9386
Maximum packet latency = 155
Minimum network latency = 5
Average network latency = 24.5862
Maximum network latency = 143
Slowest packet = 199430
Minimum flit latency = 5
Average flit latency = 25.3636
Maximum flit latency = 143
Slowest flit = 200815
Minimum fragmentation = 0
Average fragmentation = 0
Maximum fragmentation = 0
Minimum injected packet rate = 0.426 (at node 185)
Average injected packet rate = 0.500891
Maximum injected packet rate = 0.556 (at node 171)
Minimum accepted packet rate = 0.408 (at node 10)
Average accepted packet rate = 0.497109
Maximum accepted packet rate = 0.566 (at node 25)
Minimum injected flit rate = 0.426 (at node 185)
Average injected flit rate = 0.500891
Maximum injected flit rate = 0.556 (at node 171)
Minimum accepted flit rate = 0.408 (at node 10)
Average accepted flit rate = 0.497109
Maximum accepted flit rate = 0.566 (at node 25)
Average injected packet length = 1
Average accepted packet length = 1
Total in-flight flits = 3428 (3428 measured)
latency change    = 0.162662
throughput change = 0.00201163
1
Class 0:
Minimum packet latency = 5
Average packet latency = 26.2436
Maximum packet latency = 192
Minimum network latency = 5
Average network latency = 25.6262
Maximum network latency = 149
Slowest packet = 199430
Minimum flit latency = 5
Average flit latency = 25.9904
Maximum flit latency = 149
Slowest flit = 293983
Minimum fragmentation = 0
Average fragmentation = 0
Maximum fragmentation = 0
Minimum injected packet rate = 0.446 (at node 185)
Average injected packet rate = 0.500246
Maximum injected packet rate = 0.543 (at node 171)
Minimum accepted packet rate = 0.447 (at node 178)
Average accepted packet rate = 0.497902
Maximum accepted packet rate = 0.58 (at node 82)
Minimum injected flit rate = 0.446 (at node 185)
Average injected flit rate = 0.500246
Maximum injected flit rate = 0.543 (at node 171)
Minimum accepted flit rate = 0.447 (at node 178)
Average accepted flit rate = 0.497902
Maximum accepted flit rate = 0.58 (at node 82)
Average injected packet length = 1
Average accepted packet length = 1
Total in-flight flits = 3546 (3546 measured)
latency change    = 0.0497259
throughput change = 0.00159262
1
Class 0:
Minimum packet latency = 5
Average packet latency = 27.3027
Maximum packet latency = 202
Minimum network latency = 5
Average network latency = 26.4539
Maximum network latency = 149
Slowest packet = 199430
Minimum flit latency = 5
Average flit latency = 26.6839
Maximum flit latency = 149
Slowest flit = 293983
Minimum fragmentation = 0
Average fragmentation = 0
Maximum fragmentation = 0
Minimum injected packet rate = 0.456667 (at node 185)
Average injected packet rate = 0.500107
Maximum injected packet rate = 0.534 (at node 200)
Minimum accepted packet rate = 0.454 (at node 235)
Average accepted packet rate = 0.49794
Maximum accepted packet rate = 0.547333 (at node 82)
Minimum injected flit rate = 0.456667 (at node 185)
Average injected flit rate = 0.500107
Maximum injected flit rate = 0.534 (at node 200)
Minimum accepted flit rate = 0.454 (at node 235)
Average accepted flit rate = 0.49794
Maximum accepted flit rate = 0.547333 (at node 82)
Average injected packet length = 1
Average accepted packet length = 1
Total in-flight flits = 3781 (3781 measured)
latency change    = 0.0387929
throughput change = 7.58333e-05
1
Class 0:
Minimum packet latency = 5
Average packet latency = 28.9599
Maximum packet latency = 225
Minimum network latency = 5
Average network latency = 27.7632
Maximum network latency = 149
Slowest packet = 199430
Minimum flit latency = 5
Average flit latency = 27.9207
Maximum flit latency = 149
Slowest flit = 293983
Minimum fragmentation = 0
Average fragmentation = 0
Maximum fragmentation = 0
Minimum injected packet rate = 0.468 (at node 136)
Average injected packet rate = 0.500037
Maximum injected packet rate = 0.53 (at node 200)
Minimum accepted packet rate = 0.4515 (at node 166)
Average accepted packet rate = 0.497613
Maximum accepted packet rate = 0.5355 (at node 82)
Minimum injected flit rate = 0.468 (at node 136)
Average injected flit rate = 0.500037
Maximum injected flit rate = 0.53 (at node 200)
Minimum accepted flit rate = 0.4515 (at node 166)
Average accepted flit rate = 0.497613
Maximum accepted flit rate = 0.5355 (at node 82)
Average injected packet length = 1
Average accepted packet length = 1
Total in-flight flits = 4195 (4195 measured)
latency change    = 0.0572228
throughput change = 0.000656781
1
Class 0:
Minimum packet latency = 5
Average packet latency = 30.4988
Maximum packet latency = 225
Minimum network latency = 5
Average network latency = 28.7618
Maximum network latency = 149
Slowest packet = 199430
Minimum flit latency = 5
Average flit latency = 28.8785
Maximum flit latency = 149
Slowest flit = 293983
Minimum fragmentation = 0
Average fragmentation = 0
Maximum fragmentation = 0
Minimum injected packet rate = 0.466 (at node 136)
Average injected packet rate = 0.499759
Maximum injected packet rate = 0.5216 (at node 98)
Minimum accepted packet rate = 0.4508 (at node 235)
Average accepted packet rate = 0.497911
Maximum accepted packet rate = 0.532 (at node 191)
Minimum injected flit rate = 0.466 (at node 136)
Average injected flit rate = 0.499759
Maximum injected flit rate = 0.5216 (at node 98)
Minimum accepted flit rate = 0.4508 (at node 235)
Average accepted flit rate = 0.497911
Maximum accepted flit rate = 0.532 (at node 191)
Average injected packet length = 1
Average accepted packet length = 1
Total in-flight flits = 4135 (4135 measured)
latency change    = 0.0504562
throughput change = 0.00059781
1
Class 0:
Minimum packet latency = 5
Average packet latency = 31.9133
Maximum packet latency = 228
Minimum network latency = 5
Average network latency = 29.6953
Maximum network latency = 156
Slowest packet = 199430
Minimum flit latency = 5
Average flit latency = 29.7856
Maximum flit latency = 156
Slowest flit = 531195
Minimum fragmentation = 0
Average fragmentation = 0
Maximum fragmentation = 0
Minimum injected packet rate = 0.47 (at node 235)
Average injected packet rate = 0.499137
Maximum injected packet rate = 0.518667 (at node 191)
Minimum accepted packet rate = 0.454 (at node 235)
Average accepted packet rate = 0.496969
Maximum accepted packet rate = 0.528667 (at node 191)
Minimum injected flit rate = 0.47 (at node 235)
Average injected flit rate = 0.499137
Maximum injected flit rate = 0.518667 (at node 191)
Minimum accepted flit rate = 0.454 (at node 235)
Average accepted flit rate = 0.496969
Maximum accepted flit rate = 0.528667 (at node 191)
Average injected packet length = 1
Average accepted packet length = 1
Total in-flight flits = 4627 (4627 measured)
latency change    = 0.0443236
throughput change = 0.00189587
1
Class 0:
Minimum packet latency = 5
Average packet latency = 33.5319
Maximum packet latency = 283
Minimum network latency = 5
Average network latency = 30.6178
Maximum network latency = 156
Slowest packet = 199430
Minimum flit latency = 5
Average flit latency = 30.689
Maximum flit latency = 156
Slowest flit = 531195
Minimum fragmentation = 0
Average fragmentation = 0
Maximum fragmentation = 0
Minimum injected packet rate = 0.475143 (at node 136)
Average injected packet rate = 0.499081
Maximum injected packet rate = 0.518571 (at node 254)
Minimum accepted packet rate = 0.463143 (at node 180)
Average accepted packet rate = 0.497183
Maximum accepted packet rate = 0.528 (at node 254)
Minimum injected flit rate = 0.475143 (at node 136)
Average injected flit rate = 0.499081
Maximum injected flit rate = 0.518571 (at node 254)
Minimum accepted flit rate = 0.463143 (at node 180)
Average accepted flit rate = 0.497183
Maximum accepted flit rate = 0.528 (at node 254)
Average injected packet length = 1
Average accepted packet length = 1
Total in-flight flits = 4657 (4657 measured)
latency change    = 0.0482719
throughput change = 0.000431
Draining all recorded packets ...
Draining remaining packets ...
Time taken is 5353 cycles
====== Traffic class 0 ======
Overall minimum packet latency = 5 (1 samples)
Overall average packet latency = 34.2214 (1 samples)
Overall maximum packet latency = 283 (1 samples)
Overall minimum network latency = 5 (1 samples)
Overall average network latency = 31.0085 (1 samples)
Overall maximum network latency = 156 (1 samples)
Overall minimum flit latency = 5 (1 samples)
Overall average flit latency = 31.2531 (1 samples)
Overall maximum flit latency = 156 (1 samples)
Overall minimum fragmentation = 0 (1 samples)
Overall average fragmentation = 0 (1 samples)
Overall maximum fragmentation = 0 (1 samples)
Overall minimum injected packet rate = 0.475143 (1 samples)
Overall average injected packet rate = 0.499081 (1 samples)
Overall maximum injected packet rate = 0.518571 (1 samples)
Overall minimum accepted packet rate = 0.463143 (1 samples)
Overall average accepted packet rate = 0.497183 (1 samples)
Overall maximum accepted packet rate = 0.528 (1 samples)
Overall minimum injected flit rate = 0.475143 (1 samples)
Overall average injected flit rate = 0.499081 (1 samples)
Overall maximum injected flit rate = 0.518571 (1 samples)
Overall minimum accepted flit rate = 0.463143 (1 samples)
Overall average accepted flit rate = 0.497183 (1 samples)
Overall maximum accepted flit rate = 0.528 (1 samples)
Overall average injected packet size = 1 (1 samples)
Overall average accepted packet size = 1 (1 samples)
Overall average hops = 1.50029 (1 samples)
Total run time 17.4469
