BEGIN Configuration File: ./FBF-3.conf
injection_rate = 0.4;
traffic = asymmetric;
routing_function = xyyx;
vc_buf_size = 16;
topology = flatfly;
use_noc_latency = 0;
hold_switch_for_packet=0;

c = 4;
k = 8;
n = 2;

x  = 8;
y  = 8;
xr = 2;
yr = 2;

packet_size  = 1;
num_vcs      = 2;
vc_allocator = separable_input_first; 
sw_allocator = separable_input_first;

alloc_iters   = 1;
sample_period = 500;

wait_for_tail_credit = 0;
use_read_write       = 0;

credit_delay   = 2;
routing_delay  = 0;
vc_alloc_delay = 1;
sw_alloc_delay = 1;
st_final_delay = 1;

input_speedup     = 1;
output_speedup    = 1;
internal_speedup  = 2.0;

warmup_periods = 3;
sim_count      = 1;

priority = none;
injection_rate_uses_flits=1;

END Configuration File: ./FBF-3.conf
Number of nodes: 256
Number of routers: 64
 Flat Bufferfly 
 k = 8 n = 2 c = 4
 each switch - total radix =  18
 # of switches = 64
 # of channels = 896
 # of nodes ( size of network ) = 256
0
Class 0:
Minimum packet latency = 5
Average packet latency = 7.36189
Maximum packet latency = 22
Minimum network latency = 5
Average network latency = 7.36189
Maximum network latency = 22
Slowest packet = 31772
Minimum flit latency = 5
Average flit latency = 7.36189
Maximum flit latency = 22
Slowest flit = 31772
Minimum fragmentation = 0
Average fragmentation = 0
Maximum fragmentation = 0
Minimum injected packet rate = 0.334 (at node 172)
Average injected packet rate = 0.398383
Maximum injected packet rate = 0.452 (at node 149)
Minimum accepted packet rate = 0.33 (at node 50)
Average accepted packet rate = 0.39232
Maximum accepted packet rate = 0.466 (at node 57)
Minimum injected flit rate = 0.334 (at node 172)
Average injected flit rate = 0.398383
Maximum injected flit rate = 0.452 (at node 149)
Minimum accepted flit rate = 0.33 (at node 50)
Average accepted flit rate = 0.39232
Maximum accepted flit rate = 0.466 (at node 57)
Average injected packet length = 1
Average accepted packet length = 1
Total in-flight flits = 776 (0 measured)
latency change    = 1
throughput change = 1
0
Class 0:
Minimum packet latency = 5
Average packet latency = 7.38494
Maximum packet latency = 22
Minimum network latency = 5
Average network latency = 7.38494
Maximum network latency = 22
Slowest packet = 31772
Minimum flit latency = 5
Average flit latency = 7.38494
Maximum flit latency = 22
Slowest flit = 31772
Minimum fragmentation = 0
Average fragmentation = 0
Maximum fragmentation = 0
Minimum injected packet rate = 0.363 (at node 53)
Average injected packet rate = 0.399004
Maximum injected packet rate = 0.439 (at node 74)
Minimum accepted packet rate = 0.346 (at node 50)
Average accepted packet rate = 0.395969
Maximum accepted packet rate = 0.452 (at node 165)
Minimum injected flit rate = 0.363 (at node 53)
Average injected flit rate = 0.399004
Maximum injected flit rate = 0.439 (at node 74)
Minimum accepted flit rate = 0.346 (at node 50)
Average accepted flit rate = 0.395969
Maximum accepted flit rate = 0.452 (at node 165)
Average injected packet length = 1
Average accepted packet length = 1
Total in-flight flits = 777 (0 measured)
latency change    = 0.00312183
throughput change = 0.00921395
0
Class 0:
Minimum packet latency = 5
Average packet latency = 7.45899
Maximum packet latency = 24
Minimum network latency = 5
Average network latency = 7.45899
Maximum network latency = 24
Slowest packet = 142423
Minimum flit latency = 5
Average flit latency = 7.45899
Maximum flit latency = 24
Slowest flit = 142423
Minimum fragmentation = 0
Average fragmentation = 0
Maximum fragmentation = 0
Minimum injected packet rate = 0.34 (at node 186)
Average injected packet rate = 0.399008
Maximum injected packet rate = 0.46 (at node 51)
Minimum accepted packet rate = 0.326 (at node 123)
Average accepted packet rate = 0.39943
Maximum accepted packet rate = 0.464 (at node 201)
Minimum injected flit rate = 0.34 (at node 186)
Average injected flit rate = 0.399008
Maximum injected flit rate = 0.46 (at node 51)
Minimum accepted flit rate = 0.326 (at node 123)
Average accepted flit rate = 0.39943
Maximum accepted flit rate = 0.464 (at node 201)
Average injected packet length = 1
Average accepted packet length = 1
Total in-flight flits = 723 (0 measured)
latency change    = 0.00992765
throughput change = 0.0086647
Warmed up ...Time used is 1500 cycles
1
Class 0:
Minimum packet latency = 5
Average packet latency = 7.42519
Maximum packet latency = 23
Minimum network latency = 5
Average network latency = 7.42519
Maximum network latency = 23
Slowest packet = 195660
Minimum flit latency = 5
Average flit latency = 7.43594
Maximum flit latency = 23
Slowest flit = 195660
Minimum fragmentation = 0
Average fragmentation = 0
Maximum fragmentation = 0
Minimum injected packet rate = 0.332 (at node 233)
Average injected packet rate = 0.401258
Maximum injected packet rate = 0.464 (at node 239)
Minimum accepted packet rate = 0.324 (at node 124)
Average accepted packet rate = 0.401039
Maximum accepted packet rate = 0.464 (at node 252)
Minimum injected flit rate = 0.332 (at node 233)
Average injected flit rate = 0.401258
Maximum injected flit rate = 0.464 (at node 239)
Minimum accepted flit rate = 0.324 (at node 124)
Average accepted flit rate = 0.401039
Maximum accepted flit rate = 0.464 (at node 252)
Average injected packet length = 1
Average accepted packet length = 1
Total in-flight flits = 751 (751 measured)
latency change    = 0.00455229
throughput change = 0.00401301
1
Class 0:
Minimum packet latency = 5
Average packet latency = 7.42421
Maximum packet latency = 24
Minimum network latency = 5
Average network latency = 7.42421
Maximum network latency = 24
Slowest packet = 206679
Minimum flit latency = 5
Average flit latency = 7.4296
Maximum flit latency = 24
Slowest flit = 206679
Minimum fragmentation = 0
Average fragmentation = 0
Maximum fragmentation = 0
Minimum injected packet rate = 0.367 (at node 171)
Average injected packet rate = 0.400414
Maximum injected packet rate = 0.437 (at node 220)
Minimum accepted packet rate = 0.324 (at node 124)
Average accepted packet rate = 0.400234
Maximum accepted packet rate = 0.441 (at node 64)
Minimum injected flit rate = 0.367 (at node 171)
Average injected flit rate = 0.400414
Maximum injected flit rate = 0.437 (at node 220)
Minimum accepted flit rate = 0.324 (at node 124)
Average accepted flit rate = 0.400234
Maximum accepted flit rate = 0.441 (at node 64)
Average injected packet length = 1
Average accepted packet length = 1
Total in-flight flits = 769 (769 measured)
latency change    = 0.000132163
throughput change = 0.00201054
1
Class 0:
Minimum packet latency = 5
Average packet latency = 7.42589
Maximum packet latency = 24
Minimum network latency = 5
Average network latency = 7.42589
Maximum network latency = 24
Slowest packet = 206679
Minimum flit latency = 5
Average flit latency = 7.42948
Maximum flit latency = 24
Slowest flit = 206679
Minimum fragmentation = 0
Average fragmentation = 0
Maximum fragmentation = 0
Minimum injected packet rate = 0.364 (at node 252)
Average injected packet rate = 0.400297
Maximum injected packet rate = 0.432 (at node 142)
Minimum accepted packet rate = 0.326 (at node 124)
Average accepted packet rate = 0.400169
Maximum accepted packet rate = 0.435333 (at node 64)
Minimum injected flit rate = 0.364 (at node 252)
Average injected flit rate = 0.400297
Maximum injected flit rate = 0.432 (at node 142)
Minimum accepted flit rate = 0.326 (at node 124)
Average accepted flit rate = 0.400169
Maximum accepted flit rate = 0.435333 (at node 64)
Average injected packet length = 1
Average accepted packet length = 1
Total in-flight flits = 772 (772 measured)
latency change    = 0.000226509
throughput change = 0.000162692
Draining all recorded packets ...
Draining remaining packets ...
Time taken is 3038 cycles
====== Traffic class 0 ======
Overall minimum packet latency = 5 (1 samples)
Overall average packet latency = 7.43119 (1 samples)
Overall maximum packet latency = 24 (1 samples)
Overall minimum network latency = 5 (1 samples)
Overall average network latency = 7.43119 (1 samples)
Overall maximum network latency = 24 (1 samples)
Overall minimum flit latency = 5 (1 samples)
Overall average flit latency = 7.43367 (1 samples)
Overall maximum flit latency = 24 (1 samples)
Overall minimum fragmentation = 0 (1 samples)
Overall average fragmentation = 0 (1 samples)
Overall maximum fragmentation = 0 (1 samples)
Overall minimum injected packet rate = 0.364 (1 samples)
Overall average injected packet rate = 0.400297 (1 samples)
Overall maximum injected packet rate = 0.432 (1 samples)
Overall minimum accepted packet rate = 0.326 (1 samples)
Overall average accepted packet rate = 0.400169 (1 samples)
Overall maximum accepted packet rate = 0.435333 (1 samples)
Overall minimum injected flit rate = 0.364 (1 samples)
Overall average injected flit rate = 0.400297 (1 samples)
Overall maximum injected flit rate = 0.432 (1 samples)
Overall minimum accepted flit rate = 0.326 (1 samples)
Overall average accepted flit rate = 0.400169 (1 samples)
Overall maximum accepted flit rate = 0.435333 (1 samples)
Overall average injected packet size = 1 (1 samples)
Overall average accepted packet size = 1 (1 samples)
Overall average hops = 1.50077 (1 samples)
Total run time 6.86013
