BEGIN Configuration File: ./FBF-3.conf
injection_rate = 0.01;
traffic = asymmetric;
routing_function = ugal;
vc_buf_size = 16;
topology = flatfly;
use_noc_latency = 0;
hold_switch_for_packet=0;

c = 4;
k = 8;
n = 2;

x  = 8;
y  = 8;
xr = 2;
yr = 2;

packet_size  = 1;
num_vcs      = 2;
vc_allocator = separable_input_first; 
sw_allocator = separable_input_first;

alloc_iters   = 1;
sample_period = 500;

wait_for_tail_credit = 0;
use_read_write       = 0;

credit_delay   = 2;
routing_delay  = 0;
vc_alloc_delay = 1;
sw_alloc_delay = 1;
st_final_delay = 1;

input_speedup     = 1;
output_speedup    = 1;
internal_speedup  = 2.0;

warmup_periods = 3;
sim_count      = 1;

priority = none;
injection_rate_uses_flits=1;

END Configuration File: ./FBF-3.conf
Number of nodes: 256
Number of routers: 64
 Flat Bufferfly 
 k = 8 n = 2 c = 4
 each switch - total radix =  18
 # of switches = 64
 # of channels = 896
 # of nodes ( size of network ) = 256
0
Class 0:
Minimum packet latency = 5
Average packet latency = 6.5442
Maximum packet latency = 9
Minimum network latency = 5
Average network latency = 6.5442
Maximum network latency = 9
Slowest packet = 236
Minimum flit latency = 5
Average flit latency = 6.5442
Maximum flit latency = 9
Slowest flit = 236
Minimum fragmentation = 0
Average fragmentation = 0
Maximum fragmentation = 0
Minimum injected packet rate = 0 (at node 166)
Average injected packet rate = 0.00977344
Maximum injected packet rate = 0.024 (at node 35)
Minimum accepted packet rate = 0 (at node 38)
Average accepted packet rate = 0.00963281
Maximum accepted packet rate = 0.02 (at node 170)
Minimum injected flit rate = 0 (at node 166)
Average injected flit rate = 0.00977344
Maximum injected flit rate = 0.024 (at node 35)
Minimum accepted flit rate = 0 (at node 38)
Average accepted flit rate = 0.00963281
Maximum accepted flit rate = 0.02 (at node 170)
Average injected packet length = 1
Average accepted packet length = 1
Total in-flight flits = 18 (0 measured)
latency change    = 1
throughput change = 1
0
Class 0:
Minimum packet latency = 5
Average packet latency = 6.51812
Maximum packet latency = 11
Minimum network latency = 5
Average network latency = 6.51812
Maximum network latency = 11
Slowest packet = 1398
Minimum flit latency = 5
Average flit latency = 6.51812
Maximum flit latency = 11
Slowest flit = 1398
Minimum fragmentation = 0
Average fragmentation = 0
Maximum fragmentation = 0
Minimum injected packet rate = 0.003 (at node 30)
Average injected packet rate = 0.00998047
Maximum injected packet rate = 0.022 (at node 170)
Minimum accepted packet rate = 0.001 (at node 133)
Average accepted packet rate = 0.00991406
Maximum accepted packet rate = 0.02 (at node 43)
Minimum injected flit rate = 0.003 (at node 30)
Average injected flit rate = 0.00998047
Maximum injected flit rate = 0.022 (at node 170)
Minimum accepted flit rate = 0.001 (at node 133)
Average accepted flit rate = 0.00991406
Maximum accepted flit rate = 0.02 (at node 43)
Average injected packet length = 1
Average accepted packet length = 1
Total in-flight flits = 17 (0 measured)
latency change    = 0.00400063
throughput change = 0.0283688
0
Class 0:
Minimum packet latency = 5
Average packet latency = 6.52946
Maximum packet latency = 9
Minimum network latency = 5
Average network latency = 6.52946
Maximum network latency = 9
Slowest packet = 2632
Minimum flit latency = 5
Average flit latency = 6.52946
Maximum flit latency = 9
Slowest flit = 2632
Minimum fragmentation = 0
Average fragmentation = 0
Maximum fragmentation = 0
Minimum injected packet rate = 0 (at node 94)
Average injected packet rate = 0.00953906
Maximum injected packet rate = 0.02 (at node 10)
Minimum accepted packet rate = 0 (at node 2)
Average accepted packet rate = 0.00954687
Maximum accepted packet rate = 0.026 (at node 144)
Minimum injected flit rate = 0 (at node 94)
Average injected flit rate = 0.00953906
Maximum injected flit rate = 0.02 (at node 10)
Minimum accepted flit rate = 0 (at node 2)
Average accepted flit rate = 0.00954687
Maximum accepted flit rate = 0.026 (at node 144)
Average injected packet length = 1
Average accepted packet length = 1
Total in-flight flits = 16 (0 measured)
latency change    = 0.00173604
throughput change = 0.0384615
Warmed up ...Time used is 1500 cycles
1
Class 0:
Minimum packet latency = 5
Average packet latency = 6.42724
Maximum packet latency = 9
Minimum network latency = 5
Average network latency = 6.42724
Maximum network latency = 9
Slowest packet = 3833
Minimum flit latency = 5
Average flit latency = 6.43044
Maximum flit latency = 9
Slowest flit = 3833
Minimum fragmentation = 0
Average fragmentation = 0
Maximum fragmentation = 0
Minimum injected packet rate = 0 (at node 12)
Average injected packet rate = 0.0101563
Maximum injected packet rate = 0.024 (at node 9)
Minimum accepted packet rate = 0 (at node 244)
Average accepted packet rate = 0.0101641
Maximum accepted packet rate = 0.022 (at node 14)
Minimum injected flit rate = 0 (at node 12)
Average injected flit rate = 0.0101563
Maximum injected flit rate = 0.024 (at node 9)
Minimum accepted flit rate = 0 (at node 244)
Average accepted flit rate = 0.0101641
Maximum accepted flit rate = 0.022 (at node 14)
Average injected packet length = 1
Average accepted packet length = 1
Total in-flight flits = 15 (15 measured)
latency change    = 0.0159046
throughput change = 0.0607225
1
Class 0:
Minimum packet latency = 5
Average packet latency = 6.44396
Maximum packet latency = 9
Minimum network latency = 5
Average network latency = 6.44396
Maximum network latency = 9
Slowest packet = 3833
Minimum flit latency = 5
Average flit latency = 6.44549
Maximum flit latency = 9
Slowest flit = 3833
Minimum fragmentation = 0
Average fragmentation = 0
Maximum fragmentation = 0
Minimum injected packet rate = 0.003 (at node 6)
Average injected packet rate = 0.00992578
Maximum injected packet rate = 0.02 (at node 136)
Minimum accepted packet rate = 0.003 (at node 61)
Average accepted packet rate = 0.00992578
Maximum accepted packet rate = 0.018 (at node 15)
Minimum injected flit rate = 0.003 (at node 6)
Average injected flit rate = 0.00992578
Maximum injected flit rate = 0.02 (at node 136)
Minimum accepted flit rate = 0.003 (at node 61)
Average accepted flit rate = 0.00992578
Maximum accepted flit rate = 0.018 (at node 15)
Average injected packet length = 1
Average accepted packet length = 1
Total in-flight flits = 16 (16 measured)
latency change    = 0.00259515
throughput change = 0.0240063
1
Class 0:
Minimum packet latency = 5
Average packet latency = 6.44908
Maximum packet latency = 9
Minimum network latency = 5
Average network latency = 6.44908
Maximum network latency = 9
Slowest packet = 3833
Minimum flit latency = 5
Average flit latency = 6.45006
Maximum flit latency = 9
Slowest flit = 3833
Minimum fragmentation = 0
Average fragmentation = 0
Maximum fragmentation = 0
Minimum injected packet rate = 0.004 (at node 27)
Average injected packet rate = 0.0100938
Maximum injected packet rate = 0.018 (at node 136)
Minimum accepted packet rate = 0.00466667 (at node 37)
Average accepted packet rate = 0.0100911
Maximum accepted packet rate = 0.0173333 (at node 15)
Minimum injected flit rate = 0.004 (at node 27)
Average injected flit rate = 0.0100938
Maximum injected flit rate = 0.018 (at node 136)
Minimum accepted flit rate = 0.00466667 (at node 37)
Average accepted flit rate = 0.0100911
Maximum accepted flit rate = 0.0173333 (at node 15)
Average injected packet length = 1
Average accepted packet length = 1
Total in-flight flits = 17 (17 measured)
latency change    = 0.000793862
throughput change = 0.0163871
1
Class 0:
Minimum packet latency = 5
Average packet latency = 6.48474
Maximum packet latency = 9
Minimum network latency = 5
Average network latency = 6.48474
Maximum network latency = 9
Slowest packet = 3833
Minimum flit latency = 5
Average flit latency = 6.48537
Maximum flit latency = 9
Slowest flit = 3833
Minimum fragmentation = 0
Average fragmentation = 0
Maximum fragmentation = 0
Minimum injected packet rate = 0.0045 (at node 144)
Average injected packet rate = 0.0100254
Maximum injected packet rate = 0.016 (at node 136)
Minimum accepted packet rate = 0.0045 (at node 23)
Average accepted packet rate = 0.0100117
Maximum accepted packet rate = 0.0155 (at node 186)
Minimum injected flit rate = 0.0045 (at node 144)
Average injected flit rate = 0.0100254
Maximum injected flit rate = 0.016 (at node 136)
Minimum accepted flit rate = 0.0045 (at node 23)
Average accepted flit rate = 0.0100117
Maximum accepted flit rate = 0.0155 (at node 186)
Average injected packet length = 1
Average accepted packet length = 1
Total in-flight flits = 23 (23 measured)
latency change    = 0.00549841
throughput change = 0.00793341
Draining all recorded packets ...
Draining remaining packets ...
Time taken is 3520 cycles
====== Traffic class 0 ======
Overall minimum packet latency = 5 (1 samples)
Overall average packet latency = 6.48685 (1 samples)
Overall maximum packet latency = 9 (1 samples)
Overall minimum network latency = 5 (1 samples)
Overall average network latency = 6.48685 (1 samples)
Overall maximum network latency = 9 (1 samples)
Overall minimum flit latency = 5 (1 samples)
Overall average flit latency = 6.48607 (1 samples)
Overall maximum flit latency = 9 (1 samples)
Overall minimum fragmentation = 0 (1 samples)
Overall average fragmentation = 0 (1 samples)
Overall maximum fragmentation = 0 (1 samples)
Overall minimum injected packet rate = 0.0045 (1 samples)
Overall average injected packet rate = 0.0100254 (1 samples)
Overall maximum injected packet rate = 0.016 (1 samples)
Overall minimum accepted packet rate = 0.0045 (1 samples)
Overall average accepted packet rate = 0.0100117 (1 samples)
Overall maximum accepted packet rate = 0.0155 (1 samples)
Overall minimum injected flit rate = 0.0045 (1 samples)
Overall average injected flit rate = 0.0100254 (1 samples)
Overall maximum injected flit rate = 0.016 (1 samples)
Overall minimum accepted flit rate = 0.0045 (1 samples)
Overall average accepted flit rate = 0.0100117 (1 samples)
Overall maximum accepted flit rate = 0.0155 (1 samples)
Overall average injected packet size = 1 (1 samples)
Overall average accepted packet size = 1 (1 samples)
Overall average hops = 1.49406 (1 samples)
Total run time 1.45513
