BEGIN Configuration File: ./FBF-3.conf
injection_rate = 0.8;
traffic = shuffle;
routing_function = valiant;
vc_buf_size = 16;
topology = flatfly;
use_noc_latency = 0;
hold_switch_for_packet=0;

c = 4;
k = 8;
n = 2;

x  = 8;
y  = 8;
xr = 2;
yr = 2;

packet_size  = 1;
num_vcs      = 2;
vc_allocator = separable_input_first; 
sw_allocator = separable_input_first;

alloc_iters   = 1;
sample_period = 500;

wait_for_tail_credit = 0;
use_read_write       = 0;

credit_delay   = 2;
routing_delay  = 0;
vc_alloc_delay = 1;
sw_alloc_delay = 1;
st_final_delay = 1;

input_speedup     = 1;
output_speedup    = 1;
internal_speedup  = 2.0;

warmup_periods = 3;
sim_count      = 1;

priority = none;
injection_rate_uses_flits=1;

END Configuration File: ./FBF-3.conf
Number of nodes: 256
Number of routers: 64
 Flat Bufferfly 
 k = 8 n = 2 c = 4
 each switch - total radix =  18
 # of switches = 64
 # of channels = 896
 # of nodes ( size of network ) = 256
0
Class 0:
Minimum packet latency = 5
Average packet latency = 22.8038
Maximum packet latency = 82
Minimum network latency = 5
Average network latency = 22.8038
Maximum network latency = 82
Slowest packet = 31732
Minimum flit latency = 5
Average flit latency = 22.8038
Maximum flit latency = 82
Slowest flit = 31732
Minimum fragmentation = 0
Average fragmentation = 0
Maximum fragmentation = 0
Minimum injected packet rate = 0.738 (at node 2)
Average injected packet rate = 0.799844
Maximum injected packet rate = 0.848 (at node 45)
Minimum accepted packet rate = 0.706 (at node 142)
Average accepted packet rate = 0.763297
Maximum accepted packet rate = 0.812 (at node 124)
Minimum injected flit rate = 0.738 (at node 2)
Average injected flit rate = 0.799844
Maximum injected flit rate = 0.848 (at node 45)
Minimum accepted flit rate = 0.706 (at node 142)
Average accepted flit rate = 0.763297
Maximum accepted flit rate = 0.812 (at node 124)
Average injected packet length = 1
Average accepted packet length = 1
Total in-flight flits = 4678 (0 measured)
latency change    = 1
throughput change = 1
0
Class 0:
Minimum packet latency = 5
Average packet latency = 22.9074
Maximum packet latency = 82
Minimum network latency = 5
Average network latency = 22.9074
Maximum network latency = 82
Slowest packet = 31732
Minimum flit latency = 5
Average flit latency = 22.9074
Maximum flit latency = 82
Slowest flit = 31732
Minimum fragmentation = 0
Average fragmentation = 0
Maximum fragmentation = 0
Minimum injected packet rate = 0.761 (at node 2)
Average injected packet rate = 0.79868
Maximum injected packet rate = 0.832 (at node 10)
Minimum accepted packet rate = 0.742 (at node 4)
Average accepted packet rate = 0.780348
Maximum accepted packet rate = 0.816 (at node 20)
Minimum injected flit rate = 0.761 (at node 2)
Average injected flit rate = 0.79868
Maximum injected flit rate = 0.832 (at node 10)
Minimum accepted flit rate = 0.742 (at node 4)
Average accepted flit rate = 0.780348
Maximum accepted flit rate = 0.816 (at node 20)
Average injected packet length = 1
Average accepted packet length = 1
Total in-flight flits = 4693 (0 measured)
latency change    = 0.00452085
throughput change = 0.0218502
0
Class 0:
Minimum packet latency = 5
Average packet latency = 23.1758
Maximum packet latency = 71
Minimum network latency = 5
Average network latency = 23.1758
Maximum network latency = 71
Slowest packet = 243058
Minimum flit latency = 5
Average flit latency = 23.1758
Maximum flit latency = 71
Slowest flit = 243058
Minimum fragmentation = 0
Average fragmentation = 0
Maximum fragmentation = 0
Minimum injected packet rate = 0.74 (at node 171)
Average injected packet rate = 0.799492
Maximum injected packet rate = 0.842 (at node 31)
Minimum accepted packet rate = 0.744 (at node 87)
Average accepted packet rate = 0.799461
Maximum accepted packet rate = 0.846 (at node 123)
Minimum injected flit rate = 0.74 (at node 171)
Average injected flit rate = 0.799492
Maximum injected flit rate = 0.842 (at node 31)
Minimum accepted flit rate = 0.744 (at node 87)
Average accepted flit rate = 0.799461
Maximum accepted flit rate = 0.846 (at node 123)
Average injected packet length = 1
Average accepted packet length = 1
Total in-flight flits = 4697 (0 measured)
latency change    = 0.0115798
throughput change = 0.0239077
Warmed up ...Time used is 1500 cycles
1
Class 0:
Minimum packet latency = 5
Average packet latency = 23.0095
Maximum packet latency = 62
Minimum network latency = 5
Average network latency = 23.0095
Maximum network latency = 62
Slowest packet = 350839
Minimum flit latency = 5
Average flit latency = 23.0875
Maximum flit latency = 62
Slowest flit = 350839
Minimum fragmentation = 0
Average fragmentation = 0
Maximum fragmentation = 0
Minimum injected packet rate = 0.754 (at node 175)
Average injected packet rate = 0.799555
Maximum injected packet rate = 0.838 (at node 52)
Minimum accepted packet rate = 0.75 (at node 22)
Average accepted packet rate = 0.798555
Maximum accepted packet rate = 0.842 (at node 120)
Minimum injected flit rate = 0.754 (at node 175)
Average injected flit rate = 0.799555
Maximum injected flit rate = 0.838 (at node 52)
Minimum accepted flit rate = 0.75 (at node 22)
Average accepted flit rate = 0.798555
Maximum accepted flit rate = 0.842 (at node 120)
Average injected packet length = 1
Average accepted packet length = 1
Total in-flight flits = 4825 (4825 measured)
latency change    = 0.00722513
throughput change = 0.00113486
1
Class 0:
Minimum packet latency = 5
Average packet latency = 23.2119
Maximum packet latency = 67
Minimum network latency = 5
Average network latency = 23.2119
Maximum network latency = 67
Slowest packet = 447829
Minimum flit latency = 5
Average flit latency = 23.2462
Maximum flit latency = 67
Slowest flit = 447829
Minimum fragmentation = 0
Average fragmentation = 0
Maximum fragmentation = 0
Minimum injected packet rate = 0.767 (at node 181)
Average injected packet rate = 0.799309
Maximum injected packet rate = 0.831 (at node 52)
Minimum accepted packet rate = 0.762 (at node 107)
Average accepted packet rate = 0.799281
Maximum accepted packet rate = 0.835 (at node 120)
Minimum injected flit rate = 0.767 (at node 181)
Average injected flit rate = 0.799309
Maximum injected flit rate = 0.831 (at node 52)
Minimum accepted flit rate = 0.762 (at node 107)
Average accepted flit rate = 0.799281
Maximum accepted flit rate = 0.835 (at node 120)
Average injected packet length = 1
Average accepted packet length = 1
Total in-flight flits = 4704 (4704 measured)
latency change    = 0.00872028
throughput change = 0.00090902
1
Class 0:
Minimum packet latency = 5
Average packet latency = 23.1633
Maximum packet latency = 67
Minimum network latency = 5
Average network latency = 23.1633
Maximum network latency = 67
Slowest packet = 447829
Minimum flit latency = 5
Average flit latency = 23.187
Maximum flit latency = 67
Slowest flit = 447829
Minimum fragmentation = 0
Average fragmentation = 0
Maximum fragmentation = 0
Minimum injected packet rate = 0.774667 (at node 1)
Average injected packet rate = 0.79912
Maximum injected packet rate = 0.826 (at node 60)
Minimum accepted packet rate = 0.773333 (at node 2)
Average accepted packet rate = 0.799016
Maximum accepted packet rate = 0.827333 (at node 120)
Minimum injected flit rate = 0.774667 (at node 1)
Average injected flit rate = 0.79912
Maximum injected flit rate = 0.826 (at node 60)
Minimum accepted flit rate = 0.773333 (at node 2)
Average accepted flit rate = 0.799016
Maximum accepted flit rate = 0.827333 (at node 120)
Average injected packet length = 1
Average accepted packet length = 1
Total in-flight flits = 4737 (4737 measured)
latency change    = 0.00209819
throughput change = 0.00033244
Draining all recorded packets ...
Draining remaining packets ...
Time taken is 3074 cycles
====== Traffic class 0 ======
Overall minimum packet latency = 5 (1 samples)
Overall average packet latency = 23.1905 (1 samples)
Overall maximum packet latency = 67 (1 samples)
Overall minimum network latency = 5 (1 samples)
Overall average network latency = 23.1905 (1 samples)
Overall maximum network latency = 67 (1 samples)
Overall minimum flit latency = 5 (1 samples)
Overall average flit latency = 23.1988 (1 samples)
Overall maximum flit latency = 67 (1 samples)
Overall minimum fragmentation = 0 (1 samples)
Overall average fragmentation = 0 (1 samples)
Overall maximum fragmentation = 0 (1 samples)
Overall minimum injected packet rate = 0.774667 (1 samples)
Overall average injected packet rate = 0.79912 (1 samples)
Overall maximum injected packet rate = 0.826 (1 samples)
Overall minimum accepted packet rate = 0.773333 (1 samples)
Overall average accepted packet rate = 0.799016 (1 samples)
Overall maximum accepted packet rate = 0.827333 (1 samples)
Overall minimum injected flit rate = 0.774667 (1 samples)
Overall average injected flit rate = 0.79912 (1 samples)
Overall maximum injected flit rate = 0.826 (1 samples)
Overall minimum accepted flit rate = 0.773333 (1 samples)
Overall average accepted flit rate = 0.799016 (1 samples)
Overall maximum accepted flit rate = 0.827333 (1 samples)
Overall average injected packet size = 1 (1 samples)
Overall average accepted packet size = 1 (1 samples)
Overall average hops = 4.42308 (1 samples)
Total run time 30.6057
