BEGIN Configuration File: ./FBF-3.conf
injection_rate = 0.01;
traffic = asymmetric;
routing_function = xyyx;
vc_buf_size = 16;
topology = flatfly;
use_noc_latency = 0;
hold_switch_for_packet=0;

c = 4;
k = 8;
n = 2;

x  = 8;
y  = 8;
xr = 2;
yr = 2;

packet_size  = 1;
num_vcs      = 2;
vc_allocator = separable_input_first; 
sw_allocator = separable_input_first;

alloc_iters   = 1;
sample_period = 500;

wait_for_tail_credit = 0;
use_read_write       = 0;

credit_delay   = 2;
routing_delay  = 0;
vc_alloc_delay = 1;
sw_alloc_delay = 1;
st_final_delay = 1;

input_speedup     = 1;
output_speedup    = 1;
internal_speedup  = 2.0;

warmup_periods = 3;
sim_count      = 1;

priority = none;
injection_rate_uses_flits=1;

END Configuration File: ./FBF-3.conf
Number of nodes: 256
Number of routers: 64
 Flat Bufferfly 
 k = 8 n = 2 c = 4
 each switch - total radix =  18
 # of switches = 64
 # of channels = 896
 # of nodes ( size of network ) = 256
0
Class 0:
Minimum packet latency = 5
Average packet latency = 6.52227
Maximum packet latency = 9
Minimum network latency = 5
Average network latency = 6.52227
Maximum network latency = 9
Slowest packet = 383
Minimum flit latency = 5
Average flit latency = 6.52227
Maximum flit latency = 9
Slowest flit = 383
Minimum fragmentation = 0
Average fragmentation = 0
Maximum fragmentation = 0
Minimum injected packet rate = 0 (at node 166)
Average injected packet rate = 0.00977344
Maximum injected packet rate = 0.024 (at node 35)
Minimum accepted packet rate = 0 (at node 204)
Average accepted packet rate = 0.00964844
Maximum accepted packet rate = 0.024 (at node 22)
Minimum injected flit rate = 0 (at node 166)
Average injected flit rate = 0.00977344
Maximum injected flit rate = 0.024 (at node 35)
Minimum accepted flit rate = 0 (at node 204)
Average accepted flit rate = 0.00964844
Maximum accepted flit rate = 0.024 (at node 22)
Average injected packet length = 1
Average accepted packet length = 1
Total in-flight flits = 16 (0 measured)
latency change    = 1
throughput change = 1
0
Class 0:
Minimum packet latency = 5
Average packet latency = 6.513
Maximum packet latency = 9
Minimum network latency = 5
Average network latency = 6.513
Maximum network latency = 9
Slowest packet = 383
Minimum flit latency = 5
Average flit latency = 6.513
Maximum flit latency = 9
Slowest flit = 383
Minimum fragmentation = 0
Average fragmentation = 0
Maximum fragmentation = 0
Minimum injected packet rate = 0.003 (at node 30)
Average injected packet rate = 0.00998047
Maximum injected packet rate = 0.022 (at node 170)
Minimum accepted packet rate = 0.002 (at node 114)
Average accepted packet rate = 0.00991406
Maximum accepted packet rate = 0.023 (at node 229)
Minimum injected flit rate = 0.003 (at node 30)
Average injected flit rate = 0.00998047
Maximum injected flit rate = 0.022 (at node 170)
Minimum accepted flit rate = 0.002 (at node 114)
Average accepted flit rate = 0.00991406
Maximum accepted flit rate = 0.023 (at node 229)
Average injected packet length = 1
Average accepted packet length = 1
Total in-flight flits = 17 (0 measured)
latency change    = 0.00142251
throughput change = 0.0267928
0
Class 0:
Minimum packet latency = 5
Average packet latency = 6.42179
Maximum packet latency = 10
Minimum network latency = 5
Average network latency = 6.42179
Maximum network latency = 10
Slowest packet = 3423
Minimum flit latency = 5
Average flit latency = 6.42179
Maximum flit latency = 10
Slowest flit = 3423
Minimum fragmentation = 0
Average fragmentation = 0
Maximum fragmentation = 0
Minimum injected packet rate = 0 (at node 94)
Average injected packet rate = 0.00953906
Maximum injected packet rate = 0.02 (at node 10)
Minimum accepted packet rate = 0 (at node 168)
Average accepted packet rate = 0.00953906
Maximum accepted packet rate = 0.024 (at node 164)
Minimum injected flit rate = 0 (at node 94)
Average injected flit rate = 0.00953906
Maximum injected flit rate = 0.02 (at node 10)
Minimum accepted flit rate = 0 (at node 168)
Average accepted flit rate = 0.00953906
Maximum accepted flit rate = 0.024 (at node 164)
Average injected packet length = 1
Average accepted packet length = 1
Total in-flight flits = 17 (0 measured)
latency change    = 0.0142043
throughput change = 0.039312
Warmed up ...Time used is 1500 cycles
1
Class 0:
Minimum packet latency = 5
Average packet latency = 6.49493
Maximum packet latency = 9
Minimum network latency = 5
Average network latency = 6.49493
Maximum network latency = 9
Slowest packet = 3874
Minimum flit latency = 5
Average flit latency = 6.49846
Maximum flit latency = 9
Slowest flit = 3874
Minimum fragmentation = 0
Average fragmentation = 0
Maximum fragmentation = 0
Minimum injected packet rate = 0 (at node 12)
Average injected packet rate = 0.0101563
Maximum injected packet rate = 0.024 (at node 9)
Minimum accepted packet rate = 0 (at node 151)
Average accepted packet rate = 0.0101563
Maximum accepted packet rate = 0.022 (at node 115)
Minimum injected flit rate = 0 (at node 12)
Average injected flit rate = 0.0101563
Maximum injected flit rate = 0.024 (at node 9)
Minimum accepted flit rate = 0 (at node 151)
Average accepted flit rate = 0.0101563
Maximum accepted flit rate = 0.022 (at node 115)
Average injected packet length = 1
Average accepted packet length = 1
Total in-flight flits = 17 (17 measured)
latency change    = 0.0112624
throughput change = 0.0607692
1
Class 0:
Minimum packet latency = 5
Average packet latency = 6.53688
Maximum packet latency = 9
Minimum network latency = 5
Average network latency = 6.53688
Maximum network latency = 9
Slowest packet = 3874
Minimum flit latency = 5
Average flit latency = 6.5384
Maximum flit latency = 9
Slowest flit = 3874
Minimum fragmentation = 0
Average fragmentation = 0
Maximum fragmentation = 0
Minimum injected packet rate = 0.003 (at node 6)
Average injected packet rate = 0.00992578
Maximum injected packet rate = 0.02 (at node 136)
Minimum accepted packet rate = 0.003 (at node 42)
Average accepted packet rate = 0.00991797
Maximum accepted packet rate = 0.019 (at node 158)
Minimum injected flit rate = 0.003 (at node 6)
Average injected flit rate = 0.00992578
Maximum injected flit rate = 0.02 (at node 136)
Minimum accepted flit rate = 0.003 (at node 42)
Average accepted flit rate = 0.00991797
Maximum accepted flit rate = 0.019 (at node 158)
Average injected packet length = 1
Average accepted packet length = 1
Total in-flight flits = 19 (19 measured)
latency change    = 0.00641618
throughput change = 0.0240252
1
Class 0:
Minimum packet latency = 5
Average packet latency = 6.5377
Maximum packet latency = 9
Minimum network latency = 5
Average network latency = 6.5377
Maximum network latency = 9
Slowest packet = 3874
Minimum flit latency = 5
Average flit latency = 6.5387
Maximum flit latency = 9
Slowest flit = 3874
Minimum fragmentation = 0
Average fragmentation = 0
Maximum fragmentation = 0
Minimum injected packet rate = 0.004 (at node 27)
Average injected packet rate = 0.0100938
Maximum injected packet rate = 0.018 (at node 136)
Minimum accepted packet rate = 0.00533333 (at node 124)
Average accepted packet rate = 0.0100938
Maximum accepted packet rate = 0.018 (at node 115)
Minimum injected flit rate = 0.004 (at node 27)
Average injected flit rate = 0.0100938
Maximum injected flit rate = 0.018 (at node 136)
Minimum accepted flit rate = 0.00533333 (at node 124)
Average accepted flit rate = 0.0100938
Maximum accepted flit rate = 0.018 (at node 115)
Average injected packet length = 1
Average accepted packet length = 1
Total in-flight flits = 17 (17 measured)
latency change    = 0.000126738
throughput change = 0.0174149
1
Class 0:
Minimum packet latency = 5
Average packet latency = 6.54586
Maximum packet latency = 9
Minimum network latency = 5
Average network latency = 6.54586
Maximum network latency = 9
Slowest packet = 3874
Minimum flit latency = 5
Average flit latency = 6.54659
Maximum flit latency = 9
Slowest flit = 3874
Minimum fragmentation = 0
Average fragmentation = 0
Maximum fragmentation = 0
Minimum injected packet rate = 0.0045 (at node 144)
Average injected packet rate = 0.0100254
Maximum injected packet rate = 0.016 (at node 136)
Minimum accepted packet rate = 0.0055 (at node 73)
Average accepted packet rate = 0.0100195
Maximum accepted packet rate = 0.0165 (at node 115)
Minimum injected flit rate = 0.0045 (at node 144)
Average injected flit rate = 0.0100254
Maximum injected flit rate = 0.016 (at node 136)
Minimum accepted flit rate = 0.0055 (at node 73)
Average accepted flit rate = 0.0100195
Maximum accepted flit rate = 0.0165 (at node 115)
Average injected packet length = 1
Average accepted packet length = 1
Total in-flight flits = 20 (20 measured)
latency change    = 0.0012465
throughput change = 0.00740741
Draining all recorded packets ...
Draining remaining packets ...
Time taken is 3520 cycles
====== Traffic class 0 ======
Overall minimum packet latency = 5 (1 samples)
Overall average packet latency = 6.54685 (1 samples)
Overall maximum packet latency = 9 (1 samples)
Overall minimum network latency = 5 (1 samples)
Overall average network latency = 6.54685 (1 samples)
Overall maximum network latency = 9 (1 samples)
Overall minimum flit latency = 5 (1 samples)
Overall average flit latency = 6.54885 (1 samples)
Overall maximum flit latency = 9 (1 samples)
Overall minimum fragmentation = 0 (1 samples)
Overall average fragmentation = 0 (1 samples)
Overall maximum fragmentation = 0 (1 samples)
Overall minimum injected packet rate = 0.0045 (1 samples)
Overall average injected packet rate = 0.0100254 (1 samples)
Overall maximum injected packet rate = 0.016 (1 samples)
Overall minimum accepted packet rate = 0.0055 (1 samples)
Overall average accepted packet rate = 0.0100195 (1 samples)
Overall maximum accepted packet rate = 0.0165 (1 samples)
Overall minimum injected flit rate = 0.0045 (1 samples)
Overall average injected flit rate = 0.0100254 (1 samples)
Overall maximum injected flit rate = 0.016 (1 samples)
Overall minimum accepted flit rate = 0.0055 (1 samples)
Overall average accepted flit rate = 0.0100195 (1 samples)
Overall maximum accepted flit rate = 0.0165 (1 samples)
Overall average injected packet size = 1 (1 samples)
Overall average accepted packet size = 1 (1 samples)
Overall average hops = 1.51393 (1 samples)
Total run time 1.44788
