BEGIN Configuration File: ./FBF-3.conf
injection_rate = 0.5;
traffic = shuffle;
routing_function = valiant;
vc_buf_size = 16;
topology = flatfly;
use_noc_latency = 0;
hold_switch_for_packet=0;

c = 4;
k = 8;
n = 2;

x  = 8;
y  = 8;
xr = 2;
yr = 2;

packet_size  = 1;
num_vcs      = 2;
vc_allocator = separable_input_first; 
sw_allocator = separable_input_first;

alloc_iters   = 1;
sample_period = 500;

wait_for_tail_credit = 0;
use_read_write       = 0;

credit_delay   = 2;
routing_delay  = 0;
vc_alloc_delay = 1;
sw_alloc_delay = 1;
st_final_delay = 1;

input_speedup     = 1;
output_speedup    = 1;
internal_speedup  = 2.0;

warmup_periods = 3;
sim_count      = 1;

priority = none;
injection_rate_uses_flits=1;

END Configuration File: ./FBF-3.conf
Number of nodes: 256
Number of routers: 64
 Flat Bufferfly 
 k = 8 n = 2 c = 4
 each switch - total radix =  18
 # of switches = 64
 # of channels = 896
 # of nodes ( size of network ) = 256
0
Class 0:
Minimum packet latency = 5
Average packet latency = 17.237
Maximum packet latency = 32
Minimum network latency = 5
Average network latency = 17.237
Maximum network latency = 32
Slowest packet = 58410
Minimum flit latency = 5
Average flit latency = 17.237
Maximum flit latency = 32
Slowest flit = 58410
Minimum fragmentation = 0
Average fragmentation = 0
Maximum fragmentation = 0
Minimum injected packet rate = 0.426 (at node 110)
Average injected packet rate = 0.499609
Maximum injected packet rate = 0.562 (at node 22)
Minimum accepted packet rate = 0.412 (at node 220)
Average accepted packet rate = 0.482258
Maximum accepted packet rate = 0.546 (at node 44)
Minimum injected flit rate = 0.426 (at node 110)
Average injected flit rate = 0.499609
Maximum injected flit rate = 0.562 (at node 22)
Minimum accepted flit rate = 0.412 (at node 220)
Average accepted flit rate = 0.482258
Maximum accepted flit rate = 0.546 (at node 44)
Average injected packet length = 1
Average accepted packet length = 1
Total in-flight flits = 2221 (0 measured)
latency change    = 1
throughput change = 1
0
Class 0:
Minimum packet latency = 5
Average packet latency = 17.2494
Maximum packet latency = 32
Minimum network latency = 5
Average network latency = 17.2494
Maximum network latency = 32
Slowest packet = 58410
Minimum flit latency = 5
Average flit latency = 17.2494
Maximum flit latency = 32
Slowest flit = 58410
Minimum fragmentation = 0
Average fragmentation = 0
Maximum fragmentation = 0
Minimum injected packet rate = 0.448 (at node 173)
Average injected packet rate = 0.499969
Maximum injected packet rate = 0.541 (at node 74)
Minimum accepted packet rate = 0.439 (at node 91)
Average accepted packet rate = 0.491195
Maximum accepted packet rate = 0.532 (at node 148)
Minimum injected flit rate = 0.448 (at node 173)
Average injected flit rate = 0.499969
Maximum injected flit rate = 0.541 (at node 74)
Minimum accepted flit rate = 0.439 (at node 91)
Average accepted flit rate = 0.491195
Maximum accepted flit rate = 0.532 (at node 148)
Average injected packet length = 1
Average accepted packet length = 1
Total in-flight flits = 2246 (0 measured)
latency change    = 0.000716289
throughput change = 0.0181954
0
Class 0:
Minimum packet latency = 5
Average packet latency = 17.2618
Maximum packet latency = 32
Minimum network latency = 5
Average network latency = 17.2618
Maximum network latency = 32
Slowest packet = 129385
Minimum flit latency = 5
Average flit latency = 17.2618
Maximum flit latency = 32
Slowest flit = 129385
Minimum fragmentation = 0
Average fragmentation = 0
Maximum fragmentation = 0
Minimum injected packet rate = 0.444 (at node 152)
Average injected packet rate = 0.500117
Maximum injected packet rate = 0.562 (at node 51)
Minimum accepted packet rate = 0.448 (at node 49)
Average accepted packet rate = 0.500828
Maximum accepted packet rate = 0.558 (at node 102)
Minimum injected flit rate = 0.444 (at node 152)
Average injected flit rate = 0.500117
Maximum injected flit rate = 0.562 (at node 51)
Minimum accepted flit rate = 0.448 (at node 49)
Average accepted flit rate = 0.500828
Maximum accepted flit rate = 0.558 (at node 102)
Average injected packet length = 1
Average accepted packet length = 1
Total in-flight flits = 2155 (0 measured)
latency change    = 0.000721588
throughput change = 0.0192338
Warmed up ...Time used is 1500 cycles
1
Class 0:
Minimum packet latency = 5
Average packet latency = 17.2497
Maximum packet latency = 33
Minimum network latency = 5
Average network latency = 17.2497
Maximum network latency = 33
Slowest packet = 203972
Minimum flit latency = 5
Average flit latency = 17.2682
Maximum flit latency = 33
Slowest flit = 203972
Minimum fragmentation = 0
Average fragmentation = 0
Maximum fragmentation = 0
Minimum injected packet rate = 0.44 (at node 50)
Average injected packet rate = 0.501266
Maximum injected packet rate = 0.562 (at node 115)
Minimum accepted packet rate = 0.438 (at node 100)
Average accepted packet rate = 0.500687
Maximum accepted packet rate = 0.56 (at node 174)
Minimum injected flit rate = 0.44 (at node 50)
Average injected flit rate = 0.501266
Maximum injected flit rate = 0.562 (at node 115)
Minimum accepted flit rate = 0.438 (at node 100)
Average accepted flit rate = 0.500687
Maximum accepted flit rate = 0.56 (at node 174)
Average injected packet length = 1
Average accepted packet length = 1
Total in-flight flits = 2229 (2229 measured)
latency change    = 0.000704847
throughput change = 0.000280864
1
Class 0:
Minimum packet latency = 5
Average packet latency = 17.2445
Maximum packet latency = 33
Minimum network latency = 5
Average network latency = 17.2445
Maximum network latency = 33
Slowest packet = 203972
Minimum flit latency = 5
Average flit latency = 17.2538
Maximum flit latency = 33
Slowest flit = 203972
Minimum fragmentation = 0
Average fragmentation = 0
Maximum fragmentation = 0
Minimum injected packet rate = 0.46 (at node 50)
Average injected packet rate = 0.500695
Maximum injected packet rate = 0.546 (at node 115)
Minimum accepted packet rate = 0.457 (at node 100)
Average accepted packet rate = 0.500621
Maximum accepted packet rate = 0.546 (at node 230)
Minimum injected flit rate = 0.46 (at node 50)
Average injected flit rate = 0.500695
Maximum injected flit rate = 0.546 (at node 115)
Minimum accepted flit rate = 0.457 (at node 100)
Average accepted flit rate = 0.500621
Maximum accepted flit rate = 0.546 (at node 230)
Average injected packet length = 1
Average accepted packet length = 1
Total in-flight flits = 2174 (2174 measured)
latency change    = 0.000300908
throughput change = 0.000132648
1
Class 0:
Minimum packet latency = 5
Average packet latency = 17.2509
Maximum packet latency = 35
Minimum network latency = 5
Average network latency = 17.2509
Maximum network latency = 35
Slowest packet = 339479
Minimum flit latency = 5
Average flit latency = 17.257
Maximum flit latency = 35
Slowest flit = 339479
Minimum fragmentation = 0
Average fragmentation = 0
Maximum fragmentation = 0
Minimum injected packet rate = 0.465333 (at node 252)
Average injected packet rate = 0.500591
Maximum injected packet rate = 0.534 (at node 42)
Minimum accepted packet rate = 0.465333 (at node 249)
Average accepted packet rate = 0.500393
Maximum accepted packet rate = 0.534 (at node 230)
Minimum injected flit rate = 0.465333 (at node 252)
Average injected flit rate = 0.500591
Maximum injected flit rate = 0.534 (at node 42)
Minimum accepted flit rate = 0.465333 (at node 249)
Average accepted flit rate = 0.500393
Maximum accepted flit rate = 0.534 (at node 230)
Average injected packet length = 1
Average accepted packet length = 1
Total in-flight flits = 2231 (2231 measured)
latency change    = 0.000368241
throughput change = 0.000455371
Draining all recorded packets ...
Draining remaining packets ...
Time taken is 3057 cycles
====== Traffic class 0 ======
Overall minimum packet latency = 5 (1 samples)
Overall average packet latency = 17.2586 (1 samples)
Overall maximum packet latency = 35 (1 samples)
Overall minimum network latency = 5 (1 samples)
Overall average network latency = 17.2586 (1 samples)
Overall maximum network latency = 35 (1 samples)
Overall minimum flit latency = 5 (1 samples)
Overall average flit latency = 17.2606 (1 samples)
Overall maximum flit latency = 35 (1 samples)
Overall minimum fragmentation = 0 (1 samples)
Overall average fragmentation = 0 (1 samples)
Overall maximum fragmentation = 0 (1 samples)
Overall minimum injected packet rate = 0.465333 (1 samples)
Overall average injected packet rate = 0.500591 (1 samples)
Overall maximum injected packet rate = 0.534 (1 samples)
Overall minimum accepted packet rate = 0.465333 (1 samples)
Overall average accepted packet rate = 0.500393 (1 samples)
Overall maximum accepted packet rate = 0.534 (1 samples)
Overall minimum injected flit rate = 0.465333 (1 samples)
Overall average injected flit rate = 0.500591 (1 samples)
Overall maximum injected flit rate = 0.534 (1 samples)
Overall minimum accepted flit rate = 0.465333 (1 samples)
Overall average accepted flit rate = 0.500393 (1 samples)
Overall maximum accepted flit rate = 0.534 (1 samples)
Overall average injected packet size = 1 (1 samples)
Overall average accepted packet size = 1 (1 samples)
Overall average hops = 4.4228 (1 samples)
Total run time 18.1716
