BEGIN Configuration File: ./FBF-3.conf
injection_rate = 0.5;
traffic = bitrev;
routing_function = valiant;
vc_buf_size = 16;
topology = flatfly;
use_noc_latency = 0;
hold_switch_for_packet=0;

c = 4;
k = 8;
n = 2;

x  = 8;
y  = 8;
xr = 2;
yr = 2;

packet_size  = 1;
num_vcs      = 2;
vc_allocator = separable_input_first; 
sw_allocator = separable_input_first;

alloc_iters   = 1;
sample_period = 500;

wait_for_tail_credit = 0;
use_read_write       = 0;

credit_delay   = 2;
routing_delay  = 0;
vc_alloc_delay = 1;
sw_alloc_delay = 1;
st_final_delay = 1;

input_speedup     = 1;
output_speedup    = 1;
internal_speedup  = 2.0;

warmup_periods = 3;
sim_count      = 1;

priority = none;
injection_rate_uses_flits=1;

END Configuration File: ./FBF-3.conf
Number of nodes: 256
Number of routers: 64
 Flat Bufferfly 
 k = 8 n = 2 c = 4
 each switch - total radix =  18
 # of switches = 64
 # of channels = 896
 # of nodes ( size of network ) = 256
0
Class 0:
Minimum packet latency = 5
Average packet latency = 16.4536
Maximum packet latency = 33
Minimum network latency = 5
Average network latency = 16.4536
Maximum network latency = 33
Slowest packet = 16506
Minimum flit latency = 5
Average flit latency = 16.4536
Maximum flit latency = 33
Slowest flit = 16506
Minimum fragmentation = 0
Average fragmentation = 0
Maximum fragmentation = 0
Minimum injected packet rate = 0.426 (at node 110)
Average injected packet rate = 0.499609
Maximum injected packet rate = 0.562 (at node 22)
Minimum accepted packet rate = 0.414 (at node 118)
Average accepted packet rate = 0.482961
Maximum accepted packet rate = 0.546 (at node 104)
Minimum injected flit rate = 0.426 (at node 110)
Average injected flit rate = 0.499609
Maximum injected flit rate = 0.562 (at node 22)
Minimum accepted flit rate = 0.414 (at node 118)
Average accepted flit rate = 0.482961
Maximum accepted flit rate = 0.546 (at node 104)
Average injected packet length = 1
Average accepted packet length = 1
Total in-flight flits = 2131 (0 measured)
latency change    = 1
throughput change = 1
0
Class 0:
Minimum packet latency = 5
Average packet latency = 16.453
Maximum packet latency = 33
Minimum network latency = 5
Average network latency = 16.453
Maximum network latency = 33
Slowest packet = 16506
Minimum flit latency = 5
Average flit latency = 16.453
Maximum flit latency = 33
Slowest flit = 16506
Minimum fragmentation = 0
Average fragmentation = 0
Maximum fragmentation = 0
Minimum injected packet rate = 0.448 (at node 173)
Average injected packet rate = 0.499969
Maximum injected packet rate = 0.541 (at node 74)
Minimum accepted packet rate = 0.439 (at node 181)
Average accepted packet rate = 0.491527
Maximum accepted packet rate = 0.536 (at node 189)
Minimum injected flit rate = 0.448 (at node 173)
Average injected flit rate = 0.499969
Maximum injected flit rate = 0.541 (at node 74)
Minimum accepted flit rate = 0.439 (at node 181)
Average accepted flit rate = 0.491527
Maximum accepted flit rate = 0.536 (at node 189)
Average injected packet length = 1
Average accepted packet length = 1
Total in-flight flits = 2161 (0 measured)
latency change    = 3.36523e-05
throughput change = 0.0174281
0
Class 0:
Minimum packet latency = 5
Average packet latency = 16.4827
Maximum packet latency = 31
Minimum network latency = 5
Average network latency = 16.4827
Maximum network latency = 31
Slowest packet = 126484
Minimum flit latency = 5
Average flit latency = 16.4827
Maximum flit latency = 31
Slowest flit = 126484
Minimum fragmentation = 0
Average fragmentation = 0
Maximum fragmentation = 0
Minimum injected packet rate = 0.444 (at node 152)
Average injected packet rate = 0.500117
Maximum injected packet rate = 0.562 (at node 51)
Minimum accepted packet rate = 0.448 (at node 184)
Average accepted packet rate = 0.500742
Maximum accepted packet rate = 0.562 (at node 204)
Minimum injected flit rate = 0.444 (at node 152)
Average injected flit rate = 0.500117
Maximum injected flit rate = 0.562 (at node 51)
Minimum accepted flit rate = 0.448 (at node 184)
Average accepted flit rate = 0.500742
Maximum accepted flit rate = 0.562 (at node 204)
Average injected packet length = 1
Average accepted packet length = 1
Total in-flight flits = 2081 (0 measured)
latency change    = 0.00180241
throughput change = 0.0184024
Warmed up ...Time used is 1500 cycles
1
Class 0:
Minimum packet latency = 5
Average packet latency = 16.4486
Maximum packet latency = 31
Minimum network latency = 5
Average network latency = 16.4486
Maximum network latency = 31
Slowest packet = 194233
Minimum flit latency = 5
Average flit latency = 16.4798
Maximum flit latency = 31
Slowest flit = 194233
Minimum fragmentation = 0
Average fragmentation = 0
Maximum fragmentation = 0
Minimum injected packet rate = 0.44 (at node 50)
Average injected packet rate = 0.501266
Maximum injected packet rate = 0.562 (at node 115)
Minimum accepted packet rate = 0.438 (at node 76)
Average accepted packet rate = 0.500961
Maximum accepted packet rate = 0.56 (at node 234)
Minimum injected flit rate = 0.44 (at node 50)
Average injected flit rate = 0.501266
Maximum injected flit rate = 0.562 (at node 115)
Minimum accepted flit rate = 0.438 (at node 76)
Average accepted flit rate = 0.500961
Maximum accepted flit rate = 0.56 (at node 234)
Average injected packet length = 1
Average accepted packet length = 1
Total in-flight flits = 2120 (2120 measured)
latency change    = 0.00207248
throughput change = 0.000436661
1
Class 0:
Minimum packet latency = 5
Average packet latency = 16.4778
Maximum packet latency = 35
Minimum network latency = 5
Average network latency = 16.4778
Maximum network latency = 35
Slowest packet = 295558
Minimum flit latency = 5
Average flit latency = 16.4929
Maximum flit latency = 35
Slowest flit = 295558
Minimum fragmentation = 0
Average fragmentation = 0
Maximum fragmentation = 0
Minimum injected packet rate = 0.46 (at node 50)
Average injected packet rate = 0.500695
Maximum injected packet rate = 0.546 (at node 115)
Minimum accepted packet rate = 0.458 (at node 62)
Average accepted packet rate = 0.50084
Maximum accepted packet rate = 0.546 (at node 206)
Minimum injected flit rate = 0.46 (at node 50)
Average injected flit rate = 0.500695
Maximum injected flit rate = 0.546 (at node 115)
Minimum accepted flit rate = 0.458 (at node 62)
Average accepted flit rate = 0.50084
Maximum accepted flit rate = 0.546 (at node 206)
Average injected packet length = 1
Average accepted packet length = 1
Total in-flight flits = 2044 (2044 measured)
latency change    = 0.00176833
throughput change = 0.000241781
1
Class 0:
Minimum packet latency = 5
Average packet latency = 16.4777
Maximum packet latency = 35
Minimum network latency = 5
Average network latency = 16.4777
Maximum network latency = 35
Slowest packet = 295558
Minimum flit latency = 5
Average flit latency = 16.4878
Maximum flit latency = 35
Slowest flit = 295558
Minimum fragmentation = 0
Average fragmentation = 0
Maximum fragmentation = 0
Minimum injected packet rate = 0.465333 (at node 252)
Average injected packet rate = 0.500591
Maximum injected packet rate = 0.534 (at node 42)
Minimum accepted packet rate = 0.466 (at node 63)
Average accepted packet rate = 0.500492
Maximum accepted packet rate = 0.534 (at node 206)
Minimum injected flit rate = 0.465333 (at node 252)
Average injected flit rate = 0.500591
Maximum injected flit rate = 0.534 (at node 42)
Minimum accepted flit rate = 0.466 (at node 63)
Average accepted flit rate = 0.500492
Maximum accepted flit rate = 0.534 (at node 206)
Average injected packet length = 1
Average accepted packet length = 1
Total in-flight flits = 2119 (2119 measured)
latency change    = 5.3749e-06
throughput change = 0.000694629
Draining all recorded packets ...
Draining remaining packets ...
Time taken is 3053 cycles
====== Traffic class 0 ======
Overall minimum packet latency = 5 (1 samples)
Overall average packet latency = 16.489 (1 samples)
Overall maximum packet latency = 35 (1 samples)
Overall minimum network latency = 5 (1 samples)
Overall average network latency = 16.489 (1 samples)
Overall maximum network latency = 35 (1 samples)
Overall minimum flit latency = 5 (1 samples)
Overall average flit latency = 16.4957 (1 samples)
Overall maximum flit latency = 35 (1 samples)
Overall minimum fragmentation = 0 (1 samples)
Overall average fragmentation = 0 (1 samples)
Overall maximum fragmentation = 0 (1 samples)
Overall minimum injected packet rate = 0.465333 (1 samples)
Overall average injected packet rate = 0.500591 (1 samples)
Overall maximum injected packet rate = 0.534 (1 samples)
Overall minimum accepted packet rate = 0.466 (1 samples)
Overall average accepted packet rate = 0.500492 (1 samples)
Overall maximum accepted packet rate = 0.534 (1 samples)
Overall minimum injected flit rate = 0.465333 (1 samples)
Overall average injected flit rate = 0.500591 (1 samples)
Overall maximum injected flit rate = 0.534 (1 samples)
Overall minimum accepted flit rate = 0.466 (1 samples)
Overall average accepted flit rate = 0.500492 (1 samples)
Overall maximum accepted flit rate = 0.534 (1 samples)
Overall average injected packet size = 1 (1 samples)
Overall average accepted packet size = 1 (1 samples)
Overall average hops = 4.26913 (1 samples)
Total run time 17.478
