BEGIN Configuration File: ./FBF-3.conf
injection_rate = 0.5;
traffic = bitrev;
routing_function = adaptive_xyyx;
vc_buf_size = 16;
topology = flatfly;
use_noc_latency = 0;
hold_switch_for_packet=0;

c = 4;
k = 8;
n = 2;

x  = 8;
y  = 8;
xr = 2;
yr = 2;

packet_size  = 1;
num_vcs      = 2;
vc_allocator = separable_input_first; 
sw_allocator = separable_input_first;

alloc_iters   = 1;
sample_period = 500;

wait_for_tail_credit = 0;
use_read_write       = 0;

credit_delay   = 2;
routing_delay  = 0;
vc_alloc_delay = 1;
sw_alloc_delay = 1;
st_final_delay = 1;

input_speedup     = 1;
output_speedup    = 1;
internal_speedup  = 2.0;

warmup_periods = 3;
sim_count      = 1;

priority = none;
injection_rate_uses_flits=1;

END Configuration File: ./FBF-3.conf
Number of nodes: 256
Number of routers: 64
 Flat Bufferfly 
 k = 8 n = 2 c = 4
 each switch - total radix =  18
 # of switches = 64
 # of channels = 896
 # of nodes ( size of network ) = 256
0
Class 0:
Minimum packet latency = 5
Average packet latency = 12.6128
Maximum packet latency = 46
Minimum network latency = 5
Average network latency = 12.6128
Maximum network latency = 46
Slowest packet = 56570
Minimum flit latency = 5
Average flit latency = 12.6128
Maximum flit latency = 46
Slowest flit = 56570
Minimum fragmentation = 0
Average fragmentation = 0
Maximum fragmentation = 0
Minimum injected packet rate = 0.426 (at node 110)
Average injected packet rate = 0.499609
Maximum injected packet rate = 0.562 (at node 22)
Minimum accepted packet rate = 0.414 (at node 53)
Average accepted packet rate = 0.48625
Maximum accepted packet rate = 0.552 (at node 104)
Minimum injected flit rate = 0.426 (at node 110)
Average injected flit rate = 0.499609
Maximum injected flit rate = 0.562 (at node 22)
Minimum accepted flit rate = 0.414 (at node 53)
Average accepted flit rate = 0.48625
Maximum accepted flit rate = 0.552 (at node 104)
Average injected packet length = 1
Average accepted packet length = 1
Total in-flight flits = 1710 (0 measured)
latency change    = 1
throughput change = 1
0
Class 0:
Minimum packet latency = 5
Average packet latency = 13.3137
Maximum packet latency = 124
Minimum network latency = 5
Average network latency = 13.3137
Maximum network latency = 124
Slowest packet = 94153
Minimum flit latency = 5
Average flit latency = 13.3137
Maximum flit latency = 124
Slowest flit = 94153
Minimum fragmentation = 0
Average fragmentation = 0
Maximum fragmentation = 0
Minimum injected packet rate = 0.448 (at node 173)
Average injected packet rate = 0.499969
Maximum injected packet rate = 0.541 (at node 74)
Minimum accepted packet rate = 0.44 (at node 181)
Average accepted packet rate = 0.492781
Maximum accepted packet rate = 0.536 (at node 189)
Minimum injected flit rate = 0.448 (at node 173)
Average injected flit rate = 0.499969
Maximum injected flit rate = 0.541 (at node 74)
Minimum accepted flit rate = 0.44 (at node 181)
Average accepted flit rate = 0.492781
Maximum accepted flit rate = 0.536 (at node 189)
Average injected packet length = 1
Average accepted packet length = 1
Total in-flight flits = 1840 (0 measured)
latency change    = 0.0526437
throughput change = 0.0132539
0
Class 0:
Minimum packet latency = 5
Average packet latency = 14.2042
Maximum packet latency = 130
Minimum network latency = 5
Average network latency = 14.2042
Maximum network latency = 130
Slowest packet = 140800
Minimum flit latency = 5
Average flit latency = 14.2042
Maximum flit latency = 130
Slowest flit = 140800
Minimum fragmentation = 0
Average fragmentation = 0
Maximum fragmentation = 0
Minimum injected packet rate = 0.444 (at node 152)
Average injected packet rate = 0.500117
Maximum injected packet rate = 0.562 (at node 51)
Minimum accepted packet rate = 0.448 (at node 184)
Average accepted packet rate = 0.500023
Maximum accepted packet rate = 0.558 (at node 204)
Minimum injected flit rate = 0.444 (at node 152)
Average injected flit rate = 0.500117
Maximum injected flit rate = 0.562 (at node 51)
Minimum accepted flit rate = 0.448 (at node 184)
Average accepted flit rate = 0.500023
Maximum accepted flit rate = 0.558 (at node 204)
Average injected packet length = 1
Average accepted packet length = 1
Total in-flight flits = 1852 (0 measured)
latency change    = 0.0626935
throughput change = 0.0144837
Warmed up ...Time used is 1500 cycles
1
Class 0:
Minimum packet latency = 5
Average packet latency = 14.3839
Maximum packet latency = 119
Minimum network latency = 5
Average network latency = 14.3772
Maximum network latency = 119
Slowest packet = 224696
Minimum flit latency = 5
Average flit latency = 14.5272
Maximum flit latency = 119
Slowest flit = 224696
Minimum fragmentation = 0
Average fragmentation = 0
Maximum fragmentation = 0
Minimum injected packet rate = 0.452 (at node 50)
Average injected packet rate = 0.501117
Maximum injected packet rate = 0.562 (at node 87)
Minimum accepted packet rate = 0.442 (at node 76)
Average accepted packet rate = 0.500687
Maximum accepted packet rate = 0.562 (at node 249)
Minimum injected flit rate = 0.452 (at node 50)
Average injected flit rate = 0.501117
Maximum injected flit rate = 0.562 (at node 87)
Minimum accepted flit rate = 0.442 (at node 76)
Average accepted flit rate = 0.500687
Maximum accepted flit rate = 0.562 (at node 249)
Average injected packet length = 1
Average accepted packet length = 1
Total in-flight flits = 1909 (1909 measured)
latency change    = 0.0124975
throughput change = 0.0013263
1
Class 0:
Minimum packet latency = 5
Average packet latency = 14.9812
Maximum packet latency = 237
Minimum network latency = 5
Average network latency = 14.8638
Maximum network latency = 180
Slowest packet = 250332
Minimum flit latency = 5
Average flit latency = 14.9319
Maximum flit latency = 180
Slowest flit = 267698
Minimum fragmentation = 0
Average fragmentation = 0
Maximum fragmentation = 0
Minimum injected packet rate = 0.446 (at node 210)
Average injected packet rate = 0.500301
Maximum injected packet rate = 0.543 (at node 74)
Minimum accepted packet rate = 0.414 (at node 75)
Average accepted packet rate = 0.499773
Maximum accepted packet rate = 0.538 (at node 51)
Minimum injected flit rate = 0.446 (at node 210)
Average injected flit rate = 0.500301
Maximum injected flit rate = 0.543 (at node 74)
Minimum accepted flit rate = 0.414 (at node 75)
Average accepted flit rate = 0.499773
Maximum accepted flit rate = 0.538 (at node 51)
Average injected packet length = 1
Average accepted packet length = 1
Total in-flight flits = 1987 (1987 measured)
latency change    = 0.039866
throughput change = 0.00182895
1
Class 0:
Minimum packet latency = 5
Average packet latency = 15.6222
Maximum packet latency = 333
Minimum network latency = 5
Average network latency = 15.2306
Maximum network latency = 181
Slowest packet = 250332
Minimum flit latency = 5
Average flit latency = 15.2725
Maximum flit latency = 181
Slowest flit = 296947
Minimum fragmentation = 0
Average fragmentation = 0
Maximum fragmentation = 0
Minimum injected packet rate = 0.43 (at node 210)
Average injected packet rate = 0.499932
Maximum injected packet rate = 0.528 (at node 33)
Minimum accepted packet rate = 0.410667 (at node 75)
Average accepted packet rate = 0.499352
Maximum accepted packet rate = 0.530667 (at node 82)
Minimum injected flit rate = 0.43 (at node 210)
Average injected flit rate = 0.499932
Maximum injected flit rate = 0.528 (at node 33)
Minimum accepted flit rate = 0.410667 (at node 75)
Average accepted flit rate = 0.499352
Maximum accepted flit rate = 0.530667 (at node 82)
Average injected packet length = 1
Average accepted packet length = 1
Total in-flight flits = 2080 (2080 measured)
latency change    = 0.041031
throughput change = 0.000844846
Draining all recorded packets ...
Draining remaining packets ...
Time taken is 3464 cycles
====== Traffic class 0 ======
Overall minimum packet latency = 5 (1 samples)
Overall average packet latency = 16.2982 (1 samples)
Overall maximum packet latency = 402 (1 samples)
Overall minimum network latency = 5 (1 samples)
Overall average network latency = 15.5567 (1 samples)
Overall maximum network latency = 181 (1 samples)
Overall minimum flit latency = 5 (1 samples)
Overall average flit latency = 15.6285 (1 samples)
Overall maximum flit latency = 181 (1 samples)
Overall minimum fragmentation = 0 (1 samples)
Overall average fragmentation = 0 (1 samples)
Overall maximum fragmentation = 0 (1 samples)
Overall minimum injected packet rate = 0.43 (1 samples)
Overall average injected packet rate = 0.499932 (1 samples)
Overall maximum injected packet rate = 0.528 (1 samples)
Overall minimum accepted packet rate = 0.410667 (1 samples)
Overall average accepted packet rate = 0.499352 (1 samples)
Overall maximum accepted packet rate = 0.530667 (1 samples)
Overall minimum injected flit rate = 0.43 (1 samples)
Overall average injected flit rate = 0.499932 (1 samples)
Overall maximum injected flit rate = 0.528 (1 samples)
Overall minimum accepted flit rate = 0.410667 (1 samples)
Overall average accepted flit rate = 0.499352 (1 samples)
Overall maximum accepted flit rate = 0.530667 (1 samples)
Overall average injected packet size = 1 (1 samples)
Overall average accepted packet size = 1 (1 samples)
Overall average hops = 2.75094 (1 samples)
Total run time 14.1364
