BEGIN Configuration File: ./DF.conf
injection_rate = 0.1;
traffic = bitcomp;
use_size_power_of_two = yes;
routing_function = ugal;
vc_buf_size = 16;
topology = dragonflynew;
//use_noc_latency = 0;
//hold_switch_for_packet=0;

k = 7;
n = 1;

packet_size  = 1;
num_vcs      = 3;
vc_allocator = separable_input_first; 
sw_allocator = separable_input_first;

alloc_iters   = 1;
sample_period = 500;

wait_for_tail_credit = 0;
use_read_write       = 0;

credit_delay   = 2;
routing_delay  = 0;
vc_alloc_delay = 1;
sw_alloc_delay = 1;
st_final_delay = 1;

input_speedup     = 1;
output_speedup    = 1;
internal_speedup  = 2.0;

warmup_periods = 3;
sim_count      = 1;

priority = none;
injection_rate_uses_flits=1;

END Configuration File: ./DF.conf
Number of nodes: 9702
Number of routers: 1386
 Dragonfly 
 p = 7 n = 1
 each switch - total radix =  27
 # of switches = 1386
 # of channels = 27720
 # of nodes ( size of network ) = 9702
 # of groups (_g) = 99
 # of routers per group (_a) = 14
Done links


Power of two: 8192
#################################################################################
0
Class 0:
Minimum packet latency = 5
Average packet latency = 22.5285
Maximum packet latency = 31
Minimum network latency = 5
Average network latency = 22.5285
Maximum network latency = 31
Slowest packet = 129899
Minimum flit latency = 5
Average flit latency = 22.5285
Maximum flit latency = 31
Slowest flit = 129899
Minimum fragmentation = 0
Average fragmentation = 0
Maximum fragmentation = 0
Minimum injected packet rate = 0.058 (at node 242)
Average injected packet rate = 0.0998809
Maximum injected packet rate = 0.158 (at node 5911)
Minimum accepted packet rate = 0.05 (at node 2311)
Average accepted packet rate = 0.0953633
Maximum accepted packet rate = 0.15 (at node 2280)
Minimum injected flit rate = 0.058 (at node 242)
Average injected flit rate = 0.0998809
Maximum injected flit rate = 0.158 (at node 5911)
Minimum accepted flit rate = 0.05 (at node 2311)
Average accepted flit rate = 0.0953633
Maximum accepted flit rate = 0.15 (at node 2280)
Average injected packet length = 1
Average accepted packet length = 1
Total in-flight flits = 18504 (0 measured)
latency change    = 1
throughput change = 1
0
Class 0:
Minimum packet latency = 5
Average packet latency = 22.5402
Maximum packet latency = 31
Minimum network latency = 5
Average network latency = 22.5402
Maximum network latency = 31
Slowest packet = 129899
Minimum flit latency = 5
Average flit latency = 22.5402
Maximum flit latency = 31
Slowest flit = 129899
Minimum fragmentation = 0
Average fragmentation = 0
Maximum fragmentation = 0
Minimum injected packet rate = 0.066 (at node 4326)
Average injected packet rate = 0.0999166
Maximum injected packet rate = 0.137 (at node 6882)
Minimum accepted packet rate = 0.065 (at node 3865)
Average accepted packet rate = 0.0976647
Maximum accepted packet rate = 0.134 (at node 1309)
Minimum injected flit rate = 0.066 (at node 4326)
Average injected flit rate = 0.0999166
Maximum injected flit rate = 0.137 (at node 6882)
Minimum accepted flit rate = 0.065 (at node 3865)
Average accepted flit rate = 0.0976647
Maximum accepted flit rate = 0.134 (at node 1309)
Average injected packet length = 1
Average accepted packet length = 1
Total in-flight flits = 18448 (0 measured)
latency change    = 0.000516061
throughput change = 0.0235642
0
Class 0:
Minimum packet latency = 5
Average packet latency = 22.5508
Maximum packet latency = 32
Minimum network latency = 5
Average network latency = 22.5508
Maximum network latency = 32
Slowest packet = 804288
Minimum flit latency = 5
Average flit latency = 22.5508
Maximum flit latency = 32
Slowest flit = 804288
Minimum fragmentation = 0
Average fragmentation = 0
Maximum fragmentation = 0
Minimum injected packet rate = 0.056 (at node 1989)
Average injected packet rate = 0.100041
Maximum injected packet rate = 0.158 (at node 6341)
Minimum accepted packet rate = 0.058 (at node 659)
Average accepted packet rate = 0.100014
Maximum accepted packet rate = 0.164 (at node 1850)
Minimum injected flit rate = 0.056 (at node 1989)
Average injected flit rate = 0.100041
Maximum injected flit rate = 0.158 (at node 6341)
Minimum accepted flit rate = 0.058 (at node 659)
Average accepted flit rate = 0.100014
Maximum accepted flit rate = 0.164 (at node 1850)
Average injected packet length = 1
Average accepted packet length = 1
Total in-flight flits = 18560 (0 measured)
latency change    = 0.000471603
throughput change = 0.0234892
Warmed up ...Time used is 1500 cycles
1
Class 0:
Minimum packet latency = 5
Average packet latency = 22.5409
Maximum packet latency = 34
Minimum network latency = 5
Average network latency = 22.5409
Maximum network latency = 34
Slowest packet = 1542759
Minimum flit latency = 5
Average flit latency = 22.5521
Maximum flit latency = 34
Slowest flit = 1542759
Minimum fragmentation = 0
Average fragmentation = 0
Maximum fragmentation = 0
Minimum injected packet rate = 0.058 (at node 2158)
Average injected packet rate = 0.0998091
Maximum injected packet rate = 0.156 (at node 6323)
Minimum accepted packet rate = 0.056 (at node 256)
Average accepted packet rate = 0.0998228
Maximum accepted packet rate = 0.152 (at node 241)
Minimum injected flit rate = 0.058 (at node 2158)
Average injected flit rate = 0.0998091
Maximum injected flit rate = 0.156 (at node 6323)
Minimum accepted flit rate = 0.056 (at node 256)
Average accepted flit rate = 0.0998228
Maximum accepted flit rate = 0.152 (at node 241)
Average injected packet length = 1
Average accepted packet length = 1
Total in-flight flits = 18504 (18504 measured)
latency change    = 0.00043962
throughput change = 0.00191502
1
Class 0:
Minimum packet latency = 5
Average packet latency = 22.544
Maximum packet latency = 34
Minimum network latency = 5
Average network latency = 22.544
Maximum network latency = 34
Slowest packet = 1542759
Minimum flit latency = 5
Average flit latency = 22.5495
Maximum flit latency = 34
Slowest flit = 1542759
Minimum fragmentation = 0
Average fragmentation = 0
Maximum fragmentation = 0
Minimum injected packet rate = 0.066 (at node 2158)
Average injected packet rate = 0.0999216
Maximum injected packet rate = 0.144 (at node 1986)
Minimum accepted packet rate = 0.07 (at node 600)
Average accepted packet rate = 0.0999641
Maximum accepted packet rate = 0.141 (at node 6205)
Minimum injected flit rate = 0.066 (at node 2158)
Average injected flit rate = 0.0999216
Maximum injected flit rate = 0.144 (at node 1986)
Minimum accepted flit rate = 0.07 (at node 600)
Average accepted flit rate = 0.0999641
Maximum accepted flit rate = 0.141 (at node 6205)
Average injected packet length = 1
Average accepted packet length = 1
Total in-flight flits = 18212 (18212 measured)
latency change    = 0.00013754
throughput change = 0.00141408
1
Class 0:
Minimum packet latency = 5
Average packet latency = 22.5464
Maximum packet latency = 34
Minimum network latency = 5
Average network latency = 22.5464
Maximum network latency = 34
Slowest packet = 1542759
Minimum flit latency = 5
Average flit latency = 22.55
Maximum flit latency = 34
Slowest flit = 1542759
Minimum fragmentation = 0
Average fragmentation = 0
Maximum fragmentation = 0
Minimum injected packet rate = 0.0733333 (at node 2158)
Average injected packet rate = 0.100033
Maximum injected packet rate = 0.132667 (at node 1986)
Minimum accepted packet rate = 0.0746667 (at node 6952)
Average accepted packet rate = 0.100027
Maximum accepted packet rate = 0.133333 (at node 6205)
Minimum injected flit rate = 0.0733333 (at node 2158)
Average injected flit rate = 0.100033
Maximum injected flit rate = 0.132667 (at node 1986)
Minimum accepted flit rate = 0.0746667 (at node 6952)
Average accepted flit rate = 0.100027
Maximum accepted flit rate = 0.133333 (at node 6205)
Average injected packet length = 1
Average accepted packet length = 1
Total in-flight flits = 18635 (18635 measured)
latency change    = 0.000107216
throughput change = 0.00062646
Draining all recorded packets ...
Draining remaining packets ...
Time taken is 3060 cycles
====== Traffic class 0 ======
Overall minimum packet latency = 5 (1 samples)
Overall average packet latency = 22.5499 (1 samples)
Overall maximum packet latency = 34 (1 samples)
Overall minimum network latency = 5 (1 samples)
Overall average network latency = 22.5499 (1 samples)
Overall maximum network latency = 34 (1 samples)
Overall minimum flit latency = 5 (1 samples)
Overall average flit latency = 22.552 (1 samples)
Overall maximum flit latency = 34 (1 samples)
Overall minimum fragmentation = 0 (1 samples)
Overall average fragmentation = 0 (1 samples)
Overall maximum fragmentation = 0 (1 samples)
Overall minimum injected packet rate = 0.0733333 (1 samples)
Overall average injected packet rate = 0.100033 (1 samples)
Overall maximum injected packet rate = 0.132667 (1 samples)
Overall minimum accepted packet rate = 0.0746667 (1 samples)
Overall average accepted packet rate = 0.100027 (1 samples)
Overall maximum accepted packet rate = 0.133333 (1 samples)
Overall minimum injected flit rate = 0.0733333 (1 samples)
Overall average injected flit rate = 0.100033 (1 samples)
Overall maximum injected flit rate = 0.132667 (1 samples)
Overall minimum accepted flit rate = 0.0746667 (1 samples)
Overall average accepted flit rate = 0.100027 (1 samples)
Overall maximum accepted flit rate = 0.133333 (1 samples)
Overall average injected packet size = 1 (1 samples)
Overall average accepted packet size = 1 (1 samples)
Overall average hops = 6.64252 (1 samples)
Total run time 559.863
