BEGIN Configuration File: ./DF.conf
injection_rate = 0.1;
traffic = asymmetric;
use_size_power_of_two = no;
routing_function = ugal;
vc_buf_size = 16;
topology = dragonflynew;
//use_noc_latency = 0;
//hold_switch_for_packet=0;

k = 7;
n = 1;

packet_size  = 1;
num_vcs      = 3;
vc_allocator = separable_input_first; 
sw_allocator = separable_input_first;

alloc_iters   = 1;
sample_period = 500;

wait_for_tail_credit = 0;
use_read_write       = 0;

credit_delay   = 2;
routing_delay  = 0;
vc_alloc_delay = 1;
sw_alloc_delay = 1;
st_final_delay = 1;

input_speedup     = 1;
output_speedup    = 1;
internal_speedup  = 2.0;

warmup_periods = 3;
sim_count      = 1;

priority = none;
injection_rate_uses_flits=1;

END Configuration File: ./DF.conf
Number of nodes: 9702
Number of routers: 1386
 Dragonfly 
 p = 7 n = 1
 each switch - total radix =  27
 # of switches = 1386
 # of channels = 27720
 # of nodes ( size of network ) = 9702
 # of groups (_g) = 99
 # of routers per group (_a) = 14
Done links
0
Class 0:
Minimum packet latency = 5
Average packet latency = 13.5437
Maximum packet latency = 29
Minimum network latency = 5
Average network latency = 13.5437
Maximum network latency = 29
Slowest packet = 63277
Minimum flit latency = 5
Average flit latency = 13.5437
Maximum flit latency = 29
Slowest flit = 63277
Minimum fragmentation = 0
Average fragmentation = 0
Maximum fragmentation = 0
Minimum injected packet rate = 0.052 (at node 8362)
Average injected packet rate = 0.0998743
Maximum injected packet rate = 0.158 (at node 4382)
Minimum accepted packet rate = 0.05 (at node 8813)
Average accepted packet rate = 0.0971645
Maximum accepted packet rate = 0.152 (at node 9617)
Minimum injected flit rate = 0.052 (at node 8362)
Average injected flit rate = 0.0998743
Maximum injected flit rate = 0.158 (at node 4382)
Minimum accepted flit rate = 0.05 (at node 8813)
Average accepted flit rate = 0.0971645
Maximum accepted flit rate = 0.152 (at node 9617)
Average injected packet length = 1
Average accepted packet length = 1
Total in-flight flits = 13145 (0 measured)
latency change    = 1
throughput change = 1
0
Class 0:
Minimum packet latency = 5
Average packet latency = 13.5944
Maximum packet latency = 29
Minimum network latency = 5
Average network latency = 13.5944
Maximum network latency = 29
Slowest packet = 63277
Minimum flit latency = 5
Average flit latency = 13.5944
Maximum flit latency = 29
Slowest flit = 63277
Minimum fragmentation = 0
Average fragmentation = 0
Maximum fragmentation = 0
Minimum injected packet rate = 0.067 (at node 8273)
Average injected packet rate = 0.0999326
Maximum injected packet rate = 0.135 (at node 3708)
Minimum accepted packet rate = 0.065 (at node 1089)
Average accepted packet rate = 0.0985653
Maximum accepted packet rate = 0.136 (at node 1435)
Minimum injected flit rate = 0.067 (at node 8273)
Average injected flit rate = 0.0999326
Maximum injected flit rate = 0.135 (at node 3708)
Minimum accepted flit rate = 0.065 (at node 1089)
Average accepted flit rate = 0.0985653
Maximum accepted flit rate = 0.136 (at node 1435)
Average injected packet length = 1
Average accepted packet length = 1
Total in-flight flits = 13265 (0 measured)
latency change    = 0.00373129
throughput change = 0.0142123
0
Class 0:
Minimum packet latency = 5
Average packet latency = 13.6756
Maximum packet latency = 28
Minimum network latency = 5
Average network latency = 13.6756
Maximum network latency = 28
Slowest packet = 986537
Minimum flit latency = 5
Average flit latency = 13.6756
Maximum flit latency = 28
Slowest flit = 986537
Minimum fragmentation = 0
Average fragmentation = 0
Maximum fragmentation = 0
Minimum injected packet rate = 0.056 (at node 228)
Average injected packet rate = 0.0998279
Maximum injected packet rate = 0.15 (at node 6069)
Minimum accepted packet rate = 0.048 (at node 5526)
Average accepted packet rate = 0.0998446
Maximum accepted packet rate = 0.154 (at node 5377)
Minimum injected flit rate = 0.056 (at node 228)
Average injected flit rate = 0.0998279
Maximum injected flit rate = 0.15 (at node 6069)
Minimum accepted flit rate = 0.048 (at node 5526)
Average accepted flit rate = 0.0998446
Maximum accepted flit rate = 0.154 (at node 5377)
Average injected packet length = 1
Average accepted packet length = 1
Total in-flight flits = 13184 (0 measured)
latency change    = 0.00594112
throughput change = 0.0128121
Warmed up ...Time used is 1500 cycles
1
Class 0:
Minimum packet latency = 5
Average packet latency = 13.5369
Maximum packet latency = 29
Minimum network latency = 5
Average network latency = 13.5369
Maximum network latency = 29
Slowest packet = 1699893
Minimum flit latency = 5
Average flit latency = 13.6913
Maximum flit latency = 29
Slowest flit = 1699893
Minimum fragmentation = 0
Average fragmentation = 0
Maximum fragmentation = 0
Minimum injected packet rate = 0.048 (at node 7517)
Average injected packet rate = 0.100143
Maximum injected packet rate = 0.152 (at node 3378)
Minimum accepted packet rate = 0.052 (at node 5261)
Average accepted packet rate = 0.100117
Maximum accepted packet rate = 0.158 (at node 5097)
Minimum injected flit rate = 0.048 (at node 7517)
Average injected flit rate = 0.100143
Maximum injected flit rate = 0.152 (at node 3378)
Minimum accepted flit rate = 0.052 (at node 5261)
Average accepted flit rate = 0.100117
Maximum accepted flit rate = 0.158 (at node 5097)
Average injected packet length = 1
Average accepted packet length = 1
Total in-flight flits = 13311 (13311 measured)
latency change    = 0.0102516
throughput change = 0.00272408
1
Class 0:
Minimum packet latency = 5
Average packet latency = 13.6145
Maximum packet latency = 29
Minimum network latency = 5
Average network latency = 13.6145
Maximum network latency = 29
Slowest packet = 1699893
Minimum flit latency = 5
Average flit latency = 13.6907
Maximum flit latency = 29
Slowest flit = 1699893
Minimum fragmentation = 0
Average fragmentation = 0
Maximum fragmentation = 0
Minimum injected packet rate = 0.069 (at node 4482)
Average injected packet rate = 0.100113
Maximum injected packet rate = 0.134 (at node 6139)
Minimum accepted packet rate = 0.061 (at node 9415)
Average accepted packet rate = 0.100111
Maximum accepted packet rate = 0.14 (at node 5682)
Minimum injected flit rate = 0.069 (at node 4482)
Average injected flit rate = 0.100113
Maximum injected flit rate = 0.134 (at node 6139)
Minimum accepted flit rate = 0.061 (at node 9415)
Average accepted flit rate = 0.100111
Maximum accepted flit rate = 0.14 (at node 5682)
Average injected packet length = 1
Average accepted packet length = 1
Total in-flight flits = 13203 (13203 measured)
latency change    = 0.00570118
throughput change = 6.48632e-05
1
Class 0:
Minimum packet latency = 5
Average packet latency = 13.6365
Maximum packet latency = 30
Minimum network latency = 5
Average network latency = 13.6365
Maximum network latency = 30
Slowest packet = 2441089
Minimum flit latency = 5
Average flit latency = 13.6871
Maximum flit latency = 30
Slowest flit = 2441089
Minimum fragmentation = 0
Average fragmentation = 0
Maximum fragmentation = 0
Minimum injected packet rate = 0.074 (at node 9437)
Average injected packet rate = 0.100088
Maximum injected packet rate = 0.13 (at node 2000)
Minimum accepted packet rate = 0.07 (at node 958)
Average accepted packet rate = 0.100072
Maximum accepted packet rate = 0.132 (at node 2000)
Minimum injected flit rate = 0.074 (at node 9437)
Average injected flit rate = 0.100088
Maximum injected flit rate = 0.13 (at node 2000)
Minimum accepted flit rate = 0.07 (at node 958)
Average accepted flit rate = 0.100072
Maximum accepted flit rate = 0.132 (at node 2000)
Average injected packet length = 1
Average accepted packet length = 1
Total in-flight flits = 13417 (13417 measured)
latency change    = 0.00161316
throughput change = 0.000386926
Draining all recorded packets ...
Draining remaining packets ...
Time taken is 3056 cycles
====== Traffic class 0 ======
Overall minimum packet latency = 5 (1 samples)
Overall average packet latency = 13.6883 (1 samples)
Overall maximum packet latency = 30 (1 samples)
Overall minimum network latency = 5 (1 samples)
Overall average network latency = 13.6883 (1 samples)
Overall maximum network latency = 30 (1 samples)
Overall minimum flit latency = 5 (1 samples)
Overall average flit latency = 13.7376 (1 samples)
Overall maximum flit latency = 30 (1 samples)
Overall minimum fragmentation = 0 (1 samples)
Overall average fragmentation = 0 (1 samples)
Overall maximum fragmentation = 0 (1 samples)
Overall minimum injected packet rate = 0.074 (1 samples)
Overall average injected packet rate = 0.100088 (1 samples)
Overall maximum injected packet rate = 0.13 (1 samples)
Overall minimum accepted packet rate = 0.07 (1 samples)
Overall average accepted packet rate = 0.100072 (1 samples)
Overall maximum accepted packet rate = 0.132 (1 samples)
Overall minimum injected flit rate = 0.074 (1 samples)
Overall average injected flit rate = 0.100088 (1 samples)
Overall maximum injected flit rate = 0.13 (1 samples)
Overall minimum accepted flit rate = 0.07 (1 samples)
Overall average accepted flit rate = 0.100072 (1 samples)
Overall maximum accepted flit rate = 0.132 (1 samples)
Overall average injected packet size = 1 (1 samples)
Overall average accepted packet size = 1 (1 samples)
Overall average hops = 3.83657 (1 samples)
Total run time 455.855
