BEGIN Configuration File: ./DF.conf
injection_rate = 0.41;
traffic = bad_dragon;
use_size_power_of_two = no;
routing_function = ugal;
vc_buf_size = 16;
topology = dragonflynew;
//use_noc_latency = 0;
//hold_switch_for_packet=0;

k = 7;
n = 1;

packet_size  = 1;
num_vcs      = 3;
vc_allocator = separable_input_first; 
sw_allocator = separable_input_first;

alloc_iters   = 1;
sample_period = 500;

wait_for_tail_credit = 0;
use_read_write       = 0;

credit_delay   = 2;
routing_delay  = 0;
vc_alloc_delay = 1;
sw_alloc_delay = 1;
st_final_delay = 1;

input_speedup     = 1;
output_speedup    = 1;
internal_speedup  = 2.0;

warmup_periods = 3;
sim_count      = 1;

priority = none;
injection_rate_uses_flits=1;

END Configuration File: ./DF.conf
Number of nodes: 9702
Number of routers: 1386
 Dragonfly 
 p = 7 n = 1
 each switch - total radix =  27
 # of switches = 1386
 # of channels = 27720
 # of nodes ( size of network ) = 9702
 # of groups (_g) = 99
 # of routers per group (_a) = 14
Done links
0
Class 0:
Minimum packet latency = 8
Average packet latency = 34.317
Maximum packet latency = 160
Minimum network latency = 8
Average network latency = 34.317
Maximum network latency = 160
Slowest packet = 1291343
Minimum flit latency = 8
Average flit latency = 34.317
Maximum flit latency = 160
Slowest flit = 1291343
Minimum fragmentation = 0
Average fragmentation = 0
Maximum fragmentation = 0
Minimum injected packet rate = 0.328 (at node 3998)
Average injected packet rate = 0.409669
Maximum injected packet rate = 0.498 (at node 8665)
Minimum accepted packet rate = 0.278 (at node 4612)
Average accepted packet rate = 0.380458
Maximum accepted packet rate = 0.49 (at node 7817)
Minimum injected flit rate = 0.328 (at node 3998)
Average injected flit rate = 0.409669
Maximum injected flit rate = 0.498 (at node 8665)
Minimum accepted flit rate = 0.278 (at node 4612)
Average accepted flit rate = 0.380458
Maximum accepted flit rate = 0.49 (at node 7817)
Average injected packet length = 1
Average accepted packet length = 1
Total in-flight flits = 141703 (0 measured)
latency change    = 1
throughput change = 1
0
Class 0:
Minimum packet latency = 8
Average packet latency = 34.8575
Maximum packet latency = 336
Minimum network latency = 8
Average network latency = 34.849
Maximum network latency = 336
Slowest packet = 1944000
Minimum flit latency = 8
Average flit latency = 34.849
Maximum flit latency = 336
Slowest flit = 1944000
Minimum fragmentation = 0
Average fragmentation = 0
Maximum fragmentation = 0
Minimum injected packet rate = 0.267 (at node 6579)
Average injected packet rate = 0.335841
Maximum injected packet rate = 0.426 (at node 7111)
Minimum accepted packet rate = 0.207 (at node 3923)
Average accepted packet rate = 0.262814
Maximum accepted packet rate = 0.333 (at node 7817)
Minimum injected flit rate = 0.267 (at node 6579)
Average injected flit rate = 0.335841
Maximum injected flit rate = 0.426 (at node 7111)
Minimum accepted flit rate = 0.207 (at node 3923)
Average accepted flit rate = 0.262814
Maximum accepted flit rate = 0.333 (at node 7817)
Average injected packet length = 1
Average accepted packet length = 1
Total in-flight flits = 718197 (0 measured)
latency change    = 0.0155071
throughput change = 0.447632
0
Class 0:
Minimum packet latency = 14
Average packet latency = 60.7763
Maximum packet latency = 149
Minimum network latency = 8
Average network latency = 13.2961
Maximum network latency = 23
Slowest packet = 3267796
Minimum flit latency = 8
Average flit latency = 13.2961
Maximum flit latency = 23
Slowest flit = 3268085
Minimum fragmentation = 0
Average fragmentation = 0
Maximum fragmentation = 0
Minimum injected packet rate = 0 (at node 0)
Average injected packet rate = 0.000174191
Maximum injected packet rate = 0.202 (at node 7410)
Minimum accepted packet rate = 0 (at node 0)
Average accepted packet rate = 3.13337e-05
Maximum accepted packet rate = 0.004 (at node 155)
Minimum injected flit rate = 0 (at node 0)
Average injected flit rate = 0.000174191
Maximum injected flit rate = 0.202 (at node 7410)
Minimum accepted flit rate = 0 (at node 0)
Average accepted flit rate = 3.13337e-05
Maximum accepted flit rate = 0.004 (at node 155)
Average injected packet length = 1
Average accepted packet length = 1
Total in-flight flits = 718902 (0 measured)
latency change    = 0.426463
throughput change = 8386.58
Average latency for class 0 exceeded 500 cycles. Aborting simulation.
Too many sample periods needed to converge
Simulation unstable, ending ...
Total run time 564.332
