BEGIN Configuration File: ./DF.conf
injection_rate = 0.9;
traffic = asymmetric;
use_size_power_of_two = no;
routing_function = ugal;
vc_buf_size = 16;
topology = dragonflynew;
//use_noc_latency = 0;
//hold_switch_for_packet=0;

k = 7;
n = 1;

packet_size  = 1;
num_vcs      = 3;
vc_allocator = separable_input_first; 
sw_allocator = separable_input_first;

alloc_iters   = 1;
sample_period = 500;

wait_for_tail_credit = 0;
use_read_write       = 0;

credit_delay   = 2;
routing_delay  = 0;
vc_alloc_delay = 1;
sw_alloc_delay = 1;
st_final_delay = 1;

input_speedup     = 1;
output_speedup    = 1;
internal_speedup  = 2.0;

warmup_periods = 3;
sim_count      = 1;

priority = none;
injection_rate_uses_flits=1;

END Configuration File: ./DF.conf
Number of nodes: 9702
Number of routers: 1386
 Dragonfly 
 p = 7 n = 1
 each switch - total radix =  27
 # of switches = 1386
 # of channels = 27720
 # of nodes ( size of network ) = 9702
 # of groups (_g) = 99
 # of routers per group (_a) = 14
Done links
0
Class 0:
Minimum packet latency = 5
Average packet latency = 29.336
Maximum packet latency = 325
Minimum network latency = 5
Average network latency = 28.998
Maximum network latency = 325
Slowest packet = 1267882
Minimum flit latency = 5
Average flit latency = 28.998
Maximum flit latency = 325
Slowest flit = 1267882
Minimum fragmentation = 0
Average fragmentation = 0
Maximum fragmentation = 0
Minimum injected packet rate = 0.526 (at node 7420)
Average injected packet rate = 0.796335
Maximum injected packet rate = 0.926 (at node 3163)
Minimum accepted packet rate = 0.48 (at node 7586)
Average accepted packet rate = 0.654734
Maximum accepted packet rate = 0.806 (at node 5280)
Minimum injected flit rate = 0.526 (at node 7420)
Average injected flit rate = 0.796335
Maximum injected flit rate = 0.926 (at node 3163)
Minimum accepted flit rate = 0.48 (at node 7586)
Average accepted flit rate = 0.654734
Maximum accepted flit rate = 0.806 (at node 5280)
Average injected packet length = 1
Average accepted packet length = 1
Total in-flight flits = 695602 (0 measured)
latency change    = 1
throughput change = 1
0
Class 0:
Minimum packet latency = 5
Average packet latency = 29.6982
Maximum packet latency = 435
Minimum network latency = 5
Average network latency = 28.9133
Maximum network latency = 325
Slowest packet = 1267882
Minimum flit latency = 5
Average flit latency = 28.9133
Maximum flit latency = 325
Slowest flit = 1267882
Minimum fragmentation = 0
Average fragmentation = 0
Maximum fragmentation = 0
Minimum injected packet rate = 0.273 (at node 7420)
Average injected packet rate = 0.402786
Maximum injected packet rate = 0.693 (at node 3690)
Minimum accepted packet rate = 0.24 (at node 7586)
Average accepted packet rate = 0.328745
Maximum accepted packet rate = 0.467 (at node 3690)
Minimum injected flit rate = 0.273 (at node 7420)
Average injected flit rate = 0.402786
Maximum injected flit rate = 0.693 (at node 3690)
Minimum accepted flit rate = 0.24 (at node 7586)
Average accepted flit rate = 0.328745
Maximum accepted flit rate = 0.467 (at node 3690)
Average injected packet length = 1
Average accepted packet length = 1
Total in-flight flits = 728040 (0 measured)
latency change    = 0.012196
throughput change = 0.991614
0
Class 0:
Minimum packet latency = 304
Average packet latency = 477.851
Maximum packet latency = 686
Minimum network latency = 5
Average network latency = 7.14465
Maximum network latency = 20
Slowest packet = 3917429
Minimum flit latency = 5
Average flit latency = 7.14465
Maximum flit latency = 20
Slowest flit = 3918364
Minimum fragmentation = 0
Average fragmentation = 0
Maximum fragmentation = 0
Minimum injected packet rate = 0 (at node 0)
Average injected packet rate = 0.00033457
Maximum injected packet rate = 0.332 (at node 6290)
Minimum accepted packet rate = 0 (at node 0)
Average accepted packet rate = 0.00021377
Maximum accepted packet rate = 0.192 (at node 6290)
Minimum injected flit rate = 0 (at node 0)
Average injected flit rate = 0.00033457
Maximum injected flit rate = 0.332 (at node 6290)
Minimum accepted flit rate = 0 (at node 0)
Average accepted flit rate = 0.00021377
Maximum accepted flit rate = 0.192 (at node 6290)
Average injected packet length = 1
Average accepted packet length = 1
Total in-flight flits = 728632 (0 measured)
latency change    = 0.937851
throughput change = 1536.84
Average latency for class 0 exceeded 500 cycles. Aborting simulation.
Too many sample periods needed to converge
Simulation unstable, ending ...
Total run time 462.035
