BEGIN Configuration File: ./DF.conf
injection_rate = 0.01;
traffic = bitcomp;
use_size_power_of_two = yes;
routing_function = ugal;
vc_buf_size = 16;
topology = dragonflynew;
//use_noc_latency = 0;
//hold_switch_for_packet=0;

k = 7;
n = 1;

packet_size  = 1;
num_vcs      = 3;
vc_allocator = separable_input_first; 
sw_allocator = separable_input_first;

alloc_iters   = 1;
sample_period = 500;

wait_for_tail_credit = 0;
use_read_write       = 0;

credit_delay   = 2;
routing_delay  = 0;
vc_alloc_delay = 1;
sw_alloc_delay = 1;
st_final_delay = 1;

input_speedup     = 1;
output_speedup    = 1;
internal_speedup  = 2.0;

warmup_periods = 3;
sim_count      = 1;

priority = none;
injection_rate_uses_flits=1;

END Configuration File: ./DF.conf
Number of nodes: 9702
Number of routers: 1386
 Dragonfly 
 p = 7 n = 1
 each switch - total radix =  27
 # of switches = 1386
 # of channels = 27720
 # of nodes ( size of network ) = 9702
 # of groups (_g) = 99
 # of routers per group (_a) = 14
Done links


Power of two: 8192
#################################################################################
0
Class 0:
Minimum packet latency = 5
Average packet latency = 21.9673
Maximum packet latency = 25
Minimum network latency = 5
Average network latency = 21.9673
Maximum network latency = 25
Slowest packet = 297
Minimum flit latency = 5
Average flit latency = 21.9673
Maximum flit latency = 25
Slowest flit = 297
Minimum fragmentation = 0
Average fragmentation = 0
Maximum fragmentation = 0
Minimum injected packet rate = 0 (at node 101)
Average injected packet rate = 0.0100149
Maximum injected packet rate = 0.03 (at node 2725)
Minimum accepted packet rate = 0 (at node 61)
Average accepted packet rate = 0.00955933
Maximum accepted packet rate = 0.03 (at node 5466)
Minimum injected flit rate = 0 (at node 101)
Average injected flit rate = 0.0100149
Maximum injected flit rate = 0.03 (at node 2725)
Minimum accepted flit rate = 0 (at node 61)
Average accepted flit rate = 0.00955933
Maximum accepted flit rate = 0.03 (at node 5466)
Average injected packet length = 1
Average accepted packet length = 1
Total in-flight flits = 1866 (0 measured)
latency change    = 1
throughput change = 1
0
Class 0:
Minimum packet latency = 5
Average packet latency = 21.9752
Maximum packet latency = 26
Minimum network latency = 5
Average network latency = 21.9752
Maximum network latency = 26
Slowest packet = 62249
Minimum flit latency = 5
Average flit latency = 21.9752
Maximum flit latency = 26
Slowest flit = 62249
Minimum fragmentation = 0
Average fragmentation = 0
Maximum fragmentation = 0
Minimum injected packet rate = 0.001 (at node 1916)
Average injected packet rate = 0.0100062
Maximum injected packet rate = 0.024 (at node 3728)
Minimum accepted packet rate = 0.001 (at node 690)
Average accepted packet rate = 0.00979016
Maximum accepted packet rate = 0.024 (at node 4463)
Minimum injected flit rate = 0.001 (at node 1916)
Average injected flit rate = 0.0100062
Maximum injected flit rate = 0.024 (at node 3728)
Minimum accepted flit rate = 0.001 (at node 690)
Average accepted flit rate = 0.00979016
Maximum accepted flit rate = 0.024 (at node 4463)
Average injected packet length = 1
Average accepted packet length = 1
Total in-flight flits = 1770 (0 measured)
latency change    = 0.000360166
throughput change = 0.0235783
0
Class 0:
Minimum packet latency = 5
Average packet latency = 21.9691
Maximum packet latency = 26
Minimum network latency = 5
Average network latency = 21.9691
Maximum network latency = 26
Slowest packet = 89428
Minimum flit latency = 5
Average flit latency = 21.9691
Maximum flit latency = 26
Slowest flit = 89428
Minimum fragmentation = 0
Average fragmentation = 0
Maximum fragmentation = 0
Minimum injected packet rate = 0 (at node 60)
Average injected packet rate = 0.0099707
Maximum injected packet rate = 0.03 (at node 5034)
Minimum accepted packet rate = 0 (at node 362)
Average accepted packet rate = 0.00997314
Maximum accepted packet rate = 0.03 (at node 2844)
Minimum injected flit rate = 0 (at node 60)
Average injected flit rate = 0.0099707
Maximum injected flit rate = 0.03 (at node 5034)
Minimum accepted flit rate = 0 (at node 362)
Average accepted flit rate = 0.00997314
Maximum accepted flit rate = 0.03 (at node 2844)
Average injected packet length = 1
Average accepted packet length = 1
Total in-flight flits = 1760 (0 measured)
latency change    = 0.000280744
throughput change = 0.0183476
Warmed up ...Time used is 1500 cycles
1
Class 0:
Minimum packet latency = 5
Average packet latency = 21.9689
Maximum packet latency = 26
Minimum network latency = 5
Average network latency = 21.9689
Maximum network latency = 26
Slowest packet = 141703
Minimum flit latency = 5
Average flit latency = 21.9793
Maximum flit latency = 26
Slowest flit = 141703
Minimum fragmentation = 0
Average fragmentation = 0
Maximum fragmentation = 0
Minimum injected packet rate = 0 (at node 413)
Average injected packet rate = 0.00998193
Maximum injected packet rate = 0.03 (at node 3623)
Minimum accepted packet rate = 0 (at node 315)
Average accepted packet rate = 0.00997974
Maximum accepted packet rate = 0.03 (at node 4568)
Minimum injected flit rate = 0 (at node 413)
Average injected flit rate = 0.00998193
Maximum injected flit rate = 0.03 (at node 3623)
Minimum accepted flit rate = 0 (at node 315)
Average accepted flit rate = 0.00997974
Maximum accepted flit rate = 0.03 (at node 4568)
Average injected packet length = 1
Average accepted packet length = 1
Total in-flight flits = 1769 (1769 measured)
latency change    = 7.6579e-06
throughput change = 0.000660518
1
Class 0:
Minimum packet latency = 5
Average packet latency = 21.9771
Maximum packet latency = 26
Minimum network latency = 5
Average network latency = 21.9771
Maximum network latency = 26
Slowest packet = 141703
Minimum flit latency = 5
Average flit latency = 21.9821
Maximum flit latency = 26
Slowest flit = 141703
Minimum fragmentation = 0
Average fragmentation = 0
Maximum fragmentation = 0
Minimum injected packet rate = 0.001 (at node 2560)
Average injected packet rate = 0.0100521
Maximum injected packet rate = 0.023 (at node 1108)
Minimum accepted packet rate = 0.001 (at node 971)
Average accepted packet rate = 0.0100476
Maximum accepted packet rate = 0.023 (at node 3859)
Minimum injected flit rate = 0.001 (at node 2560)
Average injected flit rate = 0.0100521
Maximum injected flit rate = 0.023 (at node 1108)
Minimum accepted flit rate = 0.001 (at node 971)
Average accepted flit rate = 0.0100476
Maximum accepted flit rate = 0.023 (at node 3859)
Average injected packet length = 1
Average accepted packet length = 1
Total in-flight flits = 1797 (1797 measured)
latency change    = 0.00037226
throughput change = 0.00675495
1
Class 0:
Minimum packet latency = 5
Average packet latency = 21.9709
Maximum packet latency = 26
Minimum network latency = 5
Average network latency = 21.9709
Maximum network latency = 26
Slowest packet = 141703
Minimum flit latency = 5
Average flit latency = 21.9744
Maximum flit latency = 26
Slowest flit = 141703
Minimum fragmentation = 0
Average fragmentation = 0
Maximum fragmentation = 0
Minimum injected packet rate = 0.002 (at node 3072)
Average injected packet rate = 0.0100244
Maximum injected packet rate = 0.0213333 (at node 3939)
Minimum accepted packet rate = 0.002 (at node 1071)
Average accepted packet rate = 0.0100151
Maximum accepted packet rate = 0.0213333 (at node 4252)
Minimum injected flit rate = 0.002 (at node 3072)
Average injected flit rate = 0.0100244
Maximum injected flit rate = 0.0213333 (at node 3939)
Minimum accepted flit rate = 0.002 (at node 1071)
Average accepted flit rate = 0.0100151
Maximum accepted flit rate = 0.0213333 (at node 4252)
Average injected packet length = 1
Average accepted packet length = 1
Total in-flight flits = 1875 (1875 measured)
latency change    = 0.00027972
throughput change = 0.00325031
Draining all recorded packets ...
Draining remaining packets ...
Time taken is 3052 cycles
====== Traffic class 0 ======
Overall minimum packet latency = 5 (1 samples)
Overall average packet latency = 21.9745 (1 samples)
Overall maximum packet latency = 26 (1 samples)
Overall minimum network latency = 5 (1 samples)
Overall average network latency = 21.9745 (1 samples)
Overall maximum network latency = 26 (1 samples)
Overall minimum flit latency = 5 (1 samples)
Overall average flit latency = 21.9779 (1 samples)
Overall maximum flit latency = 26 (1 samples)
Overall minimum fragmentation = 0 (1 samples)
Overall average fragmentation = 0 (1 samples)
Overall maximum fragmentation = 0 (1 samples)
Overall minimum injected packet rate = 0.002 (1 samples)
Overall average injected packet rate = 0.0100244 (1 samples)
Overall maximum injected packet rate = 0.0213333 (1 samples)
Overall minimum accepted packet rate = 0.002 (1 samples)
Overall average accepted packet rate = 0.0100151 (1 samples)
Overall maximum accepted packet rate = 0.0213333 (1 samples)
Overall minimum injected flit rate = 0.002 (1 samples)
Overall average injected flit rate = 0.0100244 (1 samples)
Overall maximum injected flit rate = 0.0213333 (1 samples)
Overall minimum accepted flit rate = 0.002 (1 samples)
Overall average accepted flit rate = 0.0100151 (1 samples)
Overall maximum accepted flit rate = 0.0213333 (1 samples)
Overall average injected packet size = 1 (1 samples)
Overall average accepted packet size = 1 (1 samples)
Overall average hops = 6.6423 (1 samples)
Total run time 246.907
