BEGIN Configuration File: ./DF.conf
injection_rate = 0.5;
traffic = bitcomp;
use_size_power_of_two = yes;
routing_function = ugal;
vc_buf_size = 16;
topology = dragonflynew;
//use_noc_latency = 0;
//hold_switch_for_packet=0;

k = 7;
n = 1;

packet_size  = 1;
num_vcs      = 3;
vc_allocator = separable_input_first; 
sw_allocator = separable_input_first;

alloc_iters   = 1;
sample_period = 500;

wait_for_tail_credit = 0;
use_read_write       = 0;

credit_delay   = 2;
routing_delay  = 0;
vc_alloc_delay = 1;
sw_alloc_delay = 1;
st_final_delay = 1;

input_speedup     = 1;
output_speedup    = 1;
internal_speedup  = 2.0;

warmup_periods = 3;
sim_count      = 1;

priority = none;
injection_rate_uses_flits=1;

END Configuration File: ./DF.conf
Number of nodes: 9702
Number of routers: 1386
 Dragonfly 
 p = 7 n = 1
 each switch - total radix =  27
 # of switches = 1386
 # of channels = 27720
 # of nodes ( size of network ) = 9702
 # of groups (_g) = 99
 # of routers per group (_a) = 14
Done links


Power of two: 8192
#################################################################################
0
Class 0:
Minimum packet latency = 5
Average packet latency = 42.7836
Maximum packet latency = 354
Minimum network latency = 5
Average network latency = 42.7487
Maximum network latency = 324
Slowest packet = 383188
Minimum flit latency = 5
Average flit latency = 42.7487
Maximum flit latency = 324
Slowest flit = 383188
Minimum fragmentation = 0
Average fragmentation = 0
Maximum fragmentation = 0
Minimum injected packet rate = 0.254 (at node 4090)
Average injected packet rate = 0.360615
Maximum injected packet rate = 0.546 (at node 4089)
Minimum accepted packet rate = 0.152 (at node 6240)
Average accepted packet rate = 0.216133
Maximum accepted packet rate = 0.532 (at node 4095)
Minimum injected flit rate = 0.254 (at node 4090)
Average injected flit rate = 0.360615
Maximum injected flit rate = 0.546 (at node 4089)
Minimum accepted flit rate = 0.152 (at node 6240)
Average accepted flit rate = 0.216133
Maximum accepted flit rate = 0.532 (at node 4095)
Average injected packet length = 1
Average accepted packet length = 1
Total in-flight flits = 599962 (0 measured)
latency change    = 1
throughput change = 1
0
Class 0:
Minimum packet latency = 5
Average packet latency = 44.326
Maximum packet latency = 659
Minimum network latency = 5
Average network latency = 43.5098
Maximum network latency = 324
Slowest packet = 383188
Minimum flit latency = 5
Average flit latency = 43.5098
Maximum flit latency = 324
Slowest flit = 383188
Minimum fragmentation = 0
Average fragmentation = 0
Maximum fragmentation = 0
Minimum injected packet rate = 0.128 (at node 3826)
Average injected packet rate = 0.18104
Maximum injected packet rate = 0.526 (at node 4096)
Minimum accepted packet rate = 0.076 (at node 6240)
Average accepted packet rate = 0.108754
Maximum accepted packet rate = 0.522 (at node 4095)
Minimum injected flit rate = 0.128 (at node 3826)
Average injected flit rate = 0.18104
Maximum injected flit rate = 0.526 (at node 4096)
Minimum accepted flit rate = 0.076 (at node 6240)
Average accepted flit rate = 0.108754
Maximum accepted flit rate = 0.522 (at node 4095)
Average injected packet length = 1
Average accepted packet length = 1
Total in-flight flits = 600352 (0 measured)
latency change    = 0.0347959
throughput change = 0.987366
0
Class 0:
Minimum packet latency = 5
Average packet latency = 457.103
Maximum packet latency = 966
Minimum network latency = 5
Average network latency = 165.526
Maximum network latency = 252
Slowest packet = 1488469
Minimum flit latency = 5
Average flit latency = 165.526
Maximum flit latency = 252
Slowest flit = 1488469
Minimum fragmentation = 0
Average fragmentation = 0
Maximum fragmentation = 0
Minimum injected packet rate = 0 (at node 0)
Average injected packet rate = 0.0013396
Maximum injected packet rate = 0.516 (at node 4095)
Minimum accepted packet rate = 0 (at node 0)
Average accepted packet rate = 0.00134448
Maximum accepted packet rate = 0.516 (at node 4096)
Minimum injected flit rate = 0 (at node 0)
Average injected flit rate = 0.0013396
Maximum injected flit rate = 0.516 (at node 4095)
Minimum accepted flit rate = 0 (at node 0)
Average accepted flit rate = 0.00134448
Maximum accepted flit rate = 0.516 (at node 4096)
Average injected packet length = 1
Average accepted packet length = 1
Total in-flight flits = 600331 (0 measured)
latency change    = 0.903028
throughput change = 79.8889
Average latency for class 0 exceeded 500 cycles. Aborting simulation.
Too many sample periods needed to converge
Simulation unstable, ending ...
Total run time 340.387
