BEGIN Configuration File: ./DF.conf
injection_rate = 0.3;
traffic = asymmetric;
use_size_power_of_two = no;
routing_function = ugal;
vc_buf_size = 16;
topology = dragonflynew;
//use_noc_latency = 0;
//hold_switch_for_packet=0;

k = 7;
n = 1;

packet_size  = 1;
num_vcs      = 3;
vc_allocator = separable_input_first; 
sw_allocator = separable_input_first;

alloc_iters   = 1;
sample_period = 500;

wait_for_tail_credit = 0;
use_read_write       = 0;

credit_delay   = 2;
routing_delay  = 0;
vc_alloc_delay = 1;
sw_alloc_delay = 1;
st_final_delay = 1;

input_speedup     = 1;
output_speedup    = 1;
internal_speedup  = 2.0;

warmup_periods = 3;
sim_count      = 1;

priority = none;
injection_rate_uses_flits=1;

END Configuration File: ./DF.conf
Number of nodes: 9702
Number of routers: 1386
 Dragonfly 
 p = 7 n = 1
 each switch - total radix =  27
 # of switches = 1386
 # of channels = 27720
 # of nodes ( size of network ) = 9702
 # of groups (_g) = 99
 # of routers per group (_a) = 14
Done links
0
Class 0:
Minimum packet latency = 5
Average packet latency = 14.0378
Maximum packet latency = 37
Minimum network latency = 5
Average network latency = 14.0378
Maximum network latency = 37
Slowest packet = 612707
Minimum flit latency = 5
Average flit latency = 14.0378
Maximum flit latency = 37
Slowest flit = 612707
Minimum fragmentation = 0
Average fragmentation = 0
Maximum fragmentation = 0
Minimum injected packet rate = 0.228 (at node 794)
Average injected packet rate = 0.299734
Maximum injected packet rate = 0.37 (at node 7710)
Minimum accepted packet rate = 0.214 (at node 7192)
Average accepted packet rate = 0.291243
Maximum accepted packet rate = 0.372 (at node 1314)
Minimum injected flit rate = 0.228 (at node 794)
Average injected flit rate = 0.299734
Maximum injected flit rate = 0.37 (at node 7710)
Minimum accepted flit rate = 0.214 (at node 7192)
Average accepted flit rate = 0.291243
Maximum accepted flit rate = 0.372 (at node 1314)
Average injected packet length = 1
Average accepted packet length = 1
Total in-flight flits = 41188 (0 measured)
latency change    = 1
throughput change = 1
0
Class 0:
Minimum packet latency = 5
Average packet latency = 14.141
Maximum packet latency = 38
Minimum network latency = 5
Average network latency = 14.141
Maximum network latency = 38
Slowest packet = 2109369
Minimum flit latency = 5
Average flit latency = 14.141
Maximum flit latency = 38
Slowest flit = 2109369
Minimum fragmentation = 0
Average fragmentation = 0
Maximum fragmentation = 0
Minimum injected packet rate = 0.251 (at node 5233)
Average injected packet rate = 0.299883
Maximum injected packet rate = 0.363 (at node 6426)
Minimum accepted packet rate = 0.239 (at node 5623)
Average accepted packet rate = 0.295629
Maximum accepted packet rate = 0.352 (at node 4823)
Minimum injected flit rate = 0.251 (at node 5233)
Average injected flit rate = 0.299883
Maximum injected flit rate = 0.363 (at node 6426)
Minimum accepted flit rate = 0.239 (at node 5623)
Average accepted flit rate = 0.295629
Maximum accepted flit rate = 0.352 (at node 4823)
Average injected packet length = 1
Average accepted packet length = 1
Total in-flight flits = 41277 (0 measured)
latency change    = 0.00730222
throughput change = 0.0148358
0
Class 0:
Minimum packet latency = 5
Average packet latency = 14.2258
Maximum packet latency = 38
Minimum network latency = 5
Average network latency = 14.2258
Maximum network latency = 38
Slowest packet = 3245002
Minimum flit latency = 5
Average flit latency = 14.2258
Maximum flit latency = 38
Slowest flit = 3245002
Minimum fragmentation = 0
Average fragmentation = 0
Maximum fragmentation = 0
Minimum injected packet rate = 0.228 (at node 1600)
Average injected packet rate = 0.30003
Maximum injected packet rate = 0.378 (at node 3735)
Minimum accepted packet rate = 0.22 (at node 7259)
Average accepted packet rate = 0.300012
Maximum accepted packet rate = 0.394 (at node 7789)
Minimum injected flit rate = 0.228 (at node 1600)
Average injected flit rate = 0.30003
Maximum injected flit rate = 0.378 (at node 3735)
Minimum accepted flit rate = 0.22 (at node 7259)
Average accepted flit rate = 0.300012
Maximum accepted flit rate = 0.394 (at node 7789)
Average injected packet length = 1
Average accepted packet length = 1
Total in-flight flits = 41367 (0 measured)
latency change    = 0.00596239
throughput change = 0.0146081
Warmed up ...Time used is 1500 cycles
1
Class 0:
Minimum packet latency = 5
Average packet latency = 14.0673
Maximum packet latency = 36
Minimum network latency = 5
Average network latency = 14.0673
Maximum network latency = 36
Slowest packet = 4410601
Minimum flit latency = 5
Average flit latency = 14.2416
Maximum flit latency = 36
Slowest flit = 4410601
Minimum fragmentation = 0
Average fragmentation = 0
Maximum fragmentation = 0
Minimum injected packet rate = 0.2 (at node 7638)
Average injected packet rate = 0.299976
Maximum injected packet rate = 0.372 (at node 525)
Minimum accepted packet rate = 0.22 (at node 6312)
Average accepted packet rate = 0.299997
Maximum accepted packet rate = 0.396 (at node 4752)
Minimum injected flit rate = 0.2 (at node 7638)
Average injected flit rate = 0.299976
Maximum injected flit rate = 0.372 (at node 525)
Minimum accepted flit rate = 0.22 (at node 6312)
Average accepted flit rate = 0.299997
Maximum accepted flit rate = 0.396 (at node 4752)
Average injected packet length = 1
Average accepted packet length = 1
Total in-flight flits = 41269 (41269 measured)
latency change    = 0.0112685
throughput change = 4.94749e-05
1
Class 0:
Minimum packet latency = 5
Average packet latency = 14.1497
Maximum packet latency = 36
Minimum network latency = 5
Average network latency = 14.1497
Maximum network latency = 36
Slowest packet = 4410601
Minimum flit latency = 5
Average flit latency = 14.2357
Maximum flit latency = 36
Slowest flit = 4410601
Minimum fragmentation = 0
Average fragmentation = 0
Maximum fragmentation = 0
Minimum injected packet rate = 0.249 (at node 9330)
Average injected packet rate = 0.300055
Maximum injected packet rate = 0.352 (at node 5242)
Minimum accepted packet rate = 0.235 (at node 930)
Average accepted packet rate = 0.300038
Maximum accepted packet rate = 0.361 (at node 1549)
Minimum injected flit rate = 0.249 (at node 9330)
Average injected flit rate = 0.300055
Maximum injected flit rate = 0.352 (at node 5242)
Minimum accepted flit rate = 0.235 (at node 930)
Average accepted flit rate = 0.300038
Maximum accepted flit rate = 0.361 (at node 1549)
Average injected packet length = 1
Average accepted packet length = 1
Total in-flight flits = 41534 (41534 measured)
latency change    = 0.00582461
throughput change = 0.000137411
1
Class 0:
Minimum packet latency = 5
Average packet latency = 14.1754
Maximum packet latency = 36
Minimum network latency = 5
Average network latency = 14.1754
Maximum network latency = 36
Slowest packet = 4410601
Minimum flit latency = 5
Average flit latency = 14.2324
Maximum flit latency = 36
Slowest flit = 4410601
Minimum fragmentation = 0
Average fragmentation = 0
Maximum fragmentation = 0
Minimum injected packet rate = 0.253333 (at node 9330)
Average injected packet rate = 0.300073
Maximum injected packet rate = 0.348667 (at node 1920)
Minimum accepted packet rate = 0.249333 (at node 4876)
Average accepted packet rate = 0.300051
Maximum accepted packet rate = 0.363333 (at node 2000)
Minimum injected flit rate = 0.253333 (at node 9330)
Average injected flit rate = 0.300073
Maximum injected flit rate = 0.348667 (at node 1920)
Minimum accepted flit rate = 0.249333 (at node 4876)
Average accepted flit rate = 0.300051
Maximum accepted flit rate = 0.363333 (at node 2000)
Average injected packet length = 1
Average accepted packet length = 1
Total in-flight flits = 41678 (41678 measured)
latency change    = 0.00180776
throughput change = 4.46567e-05
Draining all recorded packets ...
Draining remaining packets ...
Time taken is 3064 cycles
====== Traffic class 0 ======
Overall minimum packet latency = 5 (1 samples)
Overall average packet latency = 14.233 (1 samples)
Overall maximum packet latency = 36 (1 samples)
Overall minimum network latency = 5 (1 samples)
Overall average network latency = 14.233 (1 samples)
Overall maximum network latency = 36 (1 samples)
Overall minimum flit latency = 5 (1 samples)
Overall average flit latency = 14.2853 (1 samples)
Overall maximum flit latency = 36 (1 samples)
Overall minimum fragmentation = 0 (1 samples)
Overall average fragmentation = 0 (1 samples)
Overall maximum fragmentation = 0 (1 samples)
Overall minimum injected packet rate = 0.253333 (1 samples)
Overall average injected packet rate = 0.300073 (1 samples)
Overall maximum injected packet rate = 0.348667 (1 samples)
Overall minimum accepted packet rate = 0.249333 (1 samples)
Overall average accepted packet rate = 0.300051 (1 samples)
Overall maximum accepted packet rate = 0.363333 (1 samples)
Overall minimum injected flit rate = 0.253333 (1 samples)
Overall average injected flit rate = 0.300073 (1 samples)
Overall maximum injected flit rate = 0.348667 (1 samples)
Overall minimum accepted flit rate = 0.249333 (1 samples)
Overall average accepted flit rate = 0.300051 (1 samples)
Overall maximum accepted flit rate = 0.363333 (1 samples)
Overall average injected packet size = 1 (1 samples)
Overall average accepted packet size = 1 (1 samples)
Overall average hops = 3.83204 (1 samples)
Total run time 990.839
