BEGIN Configuration File: ./DF.conf
injection_rate = 0.01;
traffic = asymmetric;
use_size_power_of_two = no;
routing_function = ugal;
vc_buf_size = 16;
topology = dragonflynew;
//use_noc_latency = 0;
//hold_switch_for_packet=0;

k = 7;
n = 1;

packet_size  = 1;
num_vcs      = 3;
vc_allocator = separable_input_first; 
sw_allocator = separable_input_first;

alloc_iters   = 1;
sample_period = 500;

wait_for_tail_credit = 0;
use_read_write       = 0;

credit_delay   = 2;
routing_delay  = 0;
vc_alloc_delay = 1;
sw_alloc_delay = 1;
st_final_delay = 1;

input_speedup     = 1;
output_speedup    = 1;
internal_speedup  = 2.0;

warmup_periods = 3;
sim_count      = 1;

priority = none;
injection_rate_uses_flits=1;

END Configuration File: ./DF.conf
Number of nodes: 9702
Number of routers: 1386
 Dragonfly 
 p = 7 n = 1
 each switch - total radix =  27
 # of switches = 1386
 # of channels = 27720
 # of nodes ( size of network ) = 9702
 # of groups (_g) = 99
 # of routers per group (_a) = 14
Done links
0
Class 0:
Minimum packet latency = 5
Average packet latency = 13.3134
Maximum packet latency = 25
Minimum network latency = 5
Average network latency = 13.3134
Maximum network latency = 25
Slowest packet = 6892
Minimum flit latency = 5
Average flit latency = 13.3134
Maximum flit latency = 25
Slowest flit = 6892
Minimum fragmentation = 0
Average fragmentation = 0
Maximum fragmentation = 0
Minimum injected packet rate = 0 (at node 53)
Average injected packet rate = 0.010012
Maximum injected packet rate = 0.032 (at node 8081)
Minimum accepted packet rate = 0 (at node 86)
Average accepted packet rate = 0.00973882
Maximum accepted packet rate = 0.032 (at node 5743)
Minimum injected flit rate = 0 (at node 53)
Average injected flit rate = 0.010012
Maximum injected flit rate = 0.032 (at node 8081)
Minimum accepted flit rate = 0 (at node 86)
Average accepted flit rate = 0.00973882
Maximum accepted flit rate = 0.032 (at node 5743)
Average injected packet length = 1
Average accepted packet length = 1
Total in-flight flits = 1325 (0 measured)
latency change    = 1
throughput change = 1
0
Class 0:
Minimum packet latency = 5
Average packet latency = 13.415
Maximum packet latency = 26
Minimum network latency = 5
Average network latency = 13.415
Maximum network latency = 26
Slowest packet = 46637
Minimum flit latency = 5
Average flit latency = 13.415
Maximum flit latency = 26
Slowest flit = 46637
Minimum fragmentation = 0
Average fragmentation = 0
Maximum fragmentation = 0
Minimum injected packet rate = 0.001 (at node 1594)
Average injected packet rate = 0.0100096
Maximum injected packet rate = 0.023 (at node 351)
Minimum accepted packet rate = 0 (at node 6392)
Average accepted packet rate = 0.00986663
Maximum accepted packet rate = 0.024 (at node 5743)
Minimum injected flit rate = 0.001 (at node 1594)
Average injected flit rate = 0.0100096
Maximum injected flit rate = 0.023 (at node 351)
Minimum accepted flit rate = 0 (at node 6392)
Average accepted flit rate = 0.00986663
Maximum accepted flit rate = 0.024 (at node 5743)
Average injected packet length = 1
Average accepted packet length = 1
Total in-flight flits = 1387 (0 measured)
latency change    = 0.0075718
throughput change = 0.0129536
0
Class 0:
Minimum packet latency = 5
Average packet latency = 13.4972
Maximum packet latency = 25
Minimum network latency = 5
Average network latency = 13.4972
Maximum network latency = 25
Slowest packet = 96764
Minimum flit latency = 5
Average flit latency = 13.4972
Maximum flit latency = 25
Slowest flit = 96764
Minimum fragmentation = 0
Average fragmentation = 0
Maximum fragmentation = 0
Minimum injected packet rate = 0 (at node 96)
Average injected packet rate = 0.00992661
Maximum injected packet rate = 0.032 (at node 417)
Minimum accepted packet rate = 0 (at node 306)
Average accepted packet rate = 0.00994414
Maximum accepted packet rate = 0.032 (at node 616)
Minimum injected flit rate = 0 (at node 96)
Average injected flit rate = 0.00992661
Maximum injected flit rate = 0.032 (at node 417)
Minimum accepted flit rate = 0 (at node 306)
Average accepted flit rate = 0.00994414
Maximum accepted flit rate = 0.032 (at node 616)
Average injected packet length = 1
Average accepted packet length = 1
Total in-flight flits = 1302 (0 measured)
latency change    = 0.00609434
throughput change = 0.00779452
Warmed up ...Time used is 1500 cycles
1
Class 0:
Minimum packet latency = 5
Average packet latency = 13.42
Maximum packet latency = 25
Minimum network latency = 5
Average network latency = 13.42
Maximum network latency = 25
Slowest packet = 150216
Minimum flit latency = 5
Average flit latency = 13.563
Maximum flit latency = 25
Slowest flit = 150216
Minimum fragmentation = 0
Average fragmentation = 0
Maximum fragmentation = 0
Minimum injected packet rate = 0 (at node 256)
Average injected packet rate = 0.0100981
Maximum injected packet rate = 0.032 (at node 4740)
Minimum accepted packet rate = 0 (at node 720)
Average accepted packet rate = 0.0101
Maximum accepted packet rate = 0.032 (at node 9591)
Minimum injected flit rate = 0 (at node 256)
Average injected flit rate = 0.0100981
Maximum injected flit rate = 0.032 (at node 4740)
Minimum accepted flit rate = 0 (at node 720)
Average accepted flit rate = 0.0101
Maximum accepted flit rate = 0.032 (at node 9591)
Average injected packet length = 1
Average accepted packet length = 1
Total in-flight flits = 1293 (1293 measured)
latency change    = 0.00575515
throughput change = 0.0154301
1
Class 0:
Minimum packet latency = 5
Average packet latency = 13.4772
Maximum packet latency = 25
Minimum network latency = 5
Average network latency = 13.4772
Maximum network latency = 25
Slowest packet = 150216
Minimum flit latency = 5
Average flit latency = 13.5483
Maximum flit latency = 25
Slowest flit = 150216
Minimum fragmentation = 0
Average fragmentation = 0
Maximum fragmentation = 0
Minimum injected packet rate = 0.001 (at node 5577)
Average injected packet rate = 0.0100415
Maximum injected packet rate = 0.024 (at node 1920)
Minimum accepted packet rate = 0.001 (at node 1851)
Average accepted packet rate = 0.0100442
Maximum accepted packet rate = 0.025 (at node 1489)
Minimum injected flit rate = 0.001 (at node 5577)
Average injected flit rate = 0.0100415
Maximum injected flit rate = 0.024 (at node 1920)
Minimum accepted flit rate = 0.001 (at node 1851)
Average accepted flit rate = 0.0100442
Maximum accepted flit rate = 0.025 (at node 1489)
Average injected packet length = 1
Average accepted packet length = 1
Total in-flight flits = 1276 (1276 measured)
latency change    = 0.00424482
throughput change = 0.00555162
1
Class 0:
Minimum packet latency = 5
Average packet latency = 13.4914
Maximum packet latency = 25
Minimum network latency = 5
Average network latency = 13.4914
Maximum network latency = 25
Slowest packet = 150216
Minimum flit latency = 5
Average flit latency = 13.5387
Maximum flit latency = 25
Slowest flit = 150216
Minimum fragmentation = 0
Average fragmentation = 0
Maximum fragmentation = 0
Minimum injected packet rate = 0.002 (at node 5577)
Average injected packet rate = 0.0100438
Maximum injected packet rate = 0.022 (at node 346)
Minimum accepted packet rate = 0.00266667 (at node 1851)
Average accepted packet rate = 0.0100433
Maximum accepted packet rate = 0.022 (at node 1489)
Minimum injected flit rate = 0.002 (at node 5577)
Average injected flit rate = 0.0100438
Maximum injected flit rate = 0.022 (at node 346)
Minimum accepted flit rate = 0.00266667 (at node 1851)
Average accepted flit rate = 0.0100433
Maximum accepted flit rate = 0.022 (at node 1489)
Average injected packet length = 1
Average accepted packet length = 1
Total in-flight flits = 1310 (1310 measured)
latency change    = 0.00105038
throughput change = 9.23645e-05
Draining all recorded packets ...
Draining remaining packets ...
Time taken is 3052 cycles
====== Traffic class 0 ======
Overall minimum packet latency = 5 (1 samples)
Overall average packet latency = 13.5389 (1 samples)
Overall maximum packet latency = 25 (1 samples)
Overall minimum network latency = 5 (1 samples)
Overall average network latency = 13.5389 (1 samples)
Overall maximum network latency = 25 (1 samples)
Overall minimum flit latency = 5 (1 samples)
Overall average flit latency = 13.5885 (1 samples)
Overall maximum flit latency = 25 (1 samples)
Overall minimum fragmentation = 0 (1 samples)
Overall average fragmentation = 0 (1 samples)
Overall maximum fragmentation = 0 (1 samples)
Overall minimum injected packet rate = 0.002 (1 samples)
Overall average injected packet rate = 0.0100438 (1 samples)
Overall maximum injected packet rate = 0.022 (1 samples)
Overall minimum accepted packet rate = 0.00266667 (1 samples)
Overall average accepted packet rate = 0.0100433 (1 samples)
Overall maximum accepted packet rate = 0.022 (1 samples)
Overall minimum injected flit rate = 0.002 (1 samples)
Overall average injected flit rate = 0.0100438 (1 samples)
Overall maximum injected flit rate = 0.022 (1 samples)
Overall minimum accepted flit rate = 0.00266667 (1 samples)
Overall average accepted flit rate = 0.0100433 (1 samples)
Overall maximum accepted flit rate = 0.022 (1 samples)
Overall average injected packet size = 1 (1 samples)
Overall average accepted packet size = 1 (1 samples)
Overall average hops = 3.84106 (1 samples)
Total run time 201.442
