BEGIN Configuration File: ./DF.conf
injection_rate = 0.3;
traffic = bitcomp;
use_size_power_of_two = yes;
routing_function = ugal;
vc_buf_size = 16;
topology = dragonflynew;
//use_noc_latency = 0;
//hold_switch_for_packet=0;

k = 7;
n = 1;

packet_size  = 1;
num_vcs      = 3;
vc_allocator = separable_input_first; 
sw_allocator = separable_input_first;

alloc_iters   = 1;
sample_period = 500;

wait_for_tail_credit = 0;
use_read_write       = 0;

credit_delay   = 2;
routing_delay  = 0;
vc_alloc_delay = 1;
sw_alloc_delay = 1;
st_final_delay = 1;

input_speedup     = 1;
output_speedup    = 1;
internal_speedup  = 2.0;

warmup_periods = 3;
sim_count      = 1;

priority = none;
injection_rate_uses_flits=1;

END Configuration File: ./DF.conf
Number of nodes: 9702
Number of routers: 1386
 Dragonfly 
 p = 7 n = 1
 each switch - total radix =  27
 # of switches = 1386
 # of channels = 27720
 # of nodes ( size of network ) = 9702
 # of groups (_g) = 99
 # of routers per group (_a) = 14
Done links


Power of two: 8192
#################################################################################
0
Class 0:
Minimum packet latency = 5
Average packet latency = 25.9335
Maximum packet latency = 315
Minimum network latency = 5
Average network latency = 25.9335
Maximum network latency = 315
Slowest packet = 420790
Minimum flit latency = 5
Average flit latency = 25.9335
Maximum flit latency = 315
Slowest flit = 420790
Minimum fragmentation = 0
Average fragmentation = 0
Maximum fragmentation = 0
Minimum injected packet rate = 0.224 (at node 5183)
Average injected packet rate = 0.299586
Maximum injected packet rate = 0.388 (at node 6101)
Minimum accepted packet rate = 0.142 (at node 4092)
Average accepted packet rate = 0.28373
Maximum accepted packet rate = 0.368 (at node 2090)
Minimum injected flit rate = 0.224 (at node 5183)
Average injected flit rate = 0.299586
Maximum injected flit rate = 0.388 (at node 6101)
Minimum accepted flit rate = 0.142 (at node 4092)
Average accepted flit rate = 0.28373
Maximum accepted flit rate = 0.368 (at node 2090)
Average injected packet length = 1
Average accepted packet length = 1
Total in-flight flits = 64975 (0 measured)
latency change    = 1
throughput change = 1
0
Class 0:
Minimum packet latency = 5
Average packet latency = 26.2122
Maximum packet latency = 562
Minimum network latency = 5
Average network latency = 26.1659
Maximum network latency = 385
Slowest packet = 514166
Minimum flit latency = 5
Average flit latency = 26.1659
Maximum flit latency = 385
Slowest flit = 1213489
Minimum fragmentation = 0
Average fragmentation = 0
Maximum fragmentation = 0
Minimum injected packet rate = 0.191 (at node 4099)
Average injected packet rate = 0.299521
Maximum injected packet rate = 0.351 (at node 238)
Minimum accepted packet rate = 0.14 (at node 4092)
Average accepted packet rate = 0.291663
Maximum accepted packet rate = 0.344 (at node 2090)
Minimum injected flit rate = 0.191 (at node 4099)
Average injected flit rate = 0.299521
Maximum injected flit rate = 0.351 (at node 238)
Minimum accepted flit rate = 0.14 (at node 4092)
Average accepted flit rate = 0.291663
Maximum accepted flit rate = 0.344 (at node 2090)
Average injected packet length = 1
Average accepted packet length = 1
Total in-flight flits = 64397 (0 measured)
latency change    = 0.0106293
throughput change = 0.0271987
0
Class 0:
Minimum packet latency = 5
Average packet latency = 26.9275
Maximum packet latency = 839
Minimum network latency = 5
Average network latency = 26.4115
Maximum network latency = 374
Slowest packet = 1654997
Minimum flit latency = 5
Average flit latency = 26.4115
Maximum flit latency = 374
Slowest flit = 1968328
Minimum fragmentation = 0
Average fragmentation = 0
Maximum fragmentation = 0
Minimum injected packet rate = 0.14 (at node 4100)
Average injected packet rate = 0.299586
Maximum injected packet rate = 0.38 (at node 6190)
Minimum accepted packet rate = 0.14 (at node 4094)
Average accepted packet rate = 0.299467
Maximum accepted packet rate = 0.378 (at node 882)
Minimum injected flit rate = 0.14 (at node 4100)
Average injected flit rate = 0.299586
Maximum injected flit rate = 0.38 (at node 6190)
Minimum accepted flit rate = 0.14 (at node 4094)
Average accepted flit rate = 0.299467
Maximum accepted flit rate = 0.378 (at node 882)
Average injected packet length = 1
Average accepted packet length = 1
Total in-flight flits = 64883 (0 measured)
latency change    = 0.0265649
throughput change = 0.0260611
Warmed up ...Time used is 1500 cycles
1
Class 0:
Minimum packet latency = 5
Average packet latency = 26.4383
Maximum packet latency = 1141
Minimum network latency = 5
Average network latency = 26.0253
Maximum network latency = 364
Slowest packet = 3686997
Minimum flit latency = 5
Average flit latency = 26.4018
Maximum flit latency = 366
Slowest flit = 3384733
Minimum fragmentation = 0
Average fragmentation = 0
Maximum fragmentation = 0
Minimum injected packet rate = 0.14 (at node 4099)
Average injected packet rate = 0.299328
Maximum injected packet rate = 0.378 (at node 1673)
Minimum accepted packet rate = 0.138 (at node 4091)
Average accepted packet rate = 0.29929
Maximum accepted packet rate = 0.384 (at node 1607)
Minimum injected flit rate = 0.14 (at node 4099)
Average injected flit rate = 0.299328
Maximum injected flit rate = 0.378 (at node 1673)
Minimum accepted flit rate = 0.138 (at node 4091)
Average accepted flit rate = 0.29929
Maximum accepted flit rate = 0.384 (at node 1607)
Average injected packet length = 1
Average accepted packet length = 1
Total in-flight flits = 65042 (65042 measured)
latency change    = 0.0185031
throughput change = 0.000593854
1
Class 0:
Minimum packet latency = 5
Average packet latency = 27.1724
Maximum packet latency = 1411
Minimum network latency = 5
Average network latency = 26.2278
Maximum network latency = 364
Slowest packet = 3686997
Minimum flit latency = 5
Average flit latency = 26.4105
Maximum flit latency = 366
Slowest flit = 3384733
Minimum fragmentation = 0
Average fragmentation = 0
Maximum fragmentation = 0
Minimum injected packet rate = 0.144 (at node 4090)
Average injected packet rate = 0.299473
Maximum injected packet rate = 0.359 (at node 6584)
Minimum accepted packet rate = 0.144 (at node 4099)
Average accepted packet rate = 0.299489
Maximum accepted packet rate = 0.364 (at node 1607)
Minimum injected flit rate = 0.144 (at node 4090)
Average injected flit rate = 0.299473
Maximum injected flit rate = 0.359 (at node 6584)
Minimum accepted flit rate = 0.144 (at node 4099)
Average accepted flit rate = 0.299489
Maximum accepted flit rate = 0.364 (at node 1607)
Average injected packet length = 1
Average accepted packet length = 1
Total in-flight flits = 64757 (64757 measured)
latency change    = 0.0270156
throughput change = 0.000665603
1
Class 0:
Minimum packet latency = 5
Average packet latency = 27.5451
Maximum packet latency = 1662
Minimum network latency = 5
Average network latency = 26.2867
Maximum network latency = 372
Slowest packet = 3686997
Minimum flit latency = 5
Average flit latency = 26.4075
Maximum flit latency = 372
Slowest flit = 6395215
Minimum fragmentation = 0
Average fragmentation = 0
Maximum fragmentation = 0
Minimum injected packet rate = 0.142667 (at node 4091)
Average injected packet rate = 0.299539
Maximum injected packet rate = 0.352667 (at node 1387)
Minimum accepted packet rate = 0.143333 (at node 4098)
Average accepted packet rate = 0.299519
Maximum accepted packet rate = 0.352667 (at node 6804)
Minimum injected flit rate = 0.142667 (at node 4091)
Average injected flit rate = 0.299539
Maximum injected flit rate = 0.352667 (at node 1387)
Minimum accepted flit rate = 0.143333 (at node 4098)
Average accepted flit rate = 0.299519
Maximum accepted flit rate = 0.352667 (at node 6804)
Average injected packet length = 1
Average accepted packet length = 1
Total in-flight flits = 65141 (65141 measured)
latency change    = 0.0135326
throughput change = 9.95792e-05
Draining all recorded packets ...
Class 0:
Remaining flits: 8962784 8975042 8979897 8982389 8987307 8989764 8992297 8994799 8999729 8999732 [...] (64534 flits)
Measured flits: 8962784 8975042 8979897 8982389 8987307 8989764 8992297 8994799 8999729 8999732 [...] (1529 flits)
Class 0:
Remaining flits: 11317019 11329388 11334358 11346535 11353859 11358818 11361315 11363649 11363650 11366115 [...] (64830 flits)
Measured flits: 11317019 11329388 11334358 11346535 11353859 11358818 11361315 11363649 11363650 11366115 [...] (1387 flits)
Class 0:
Remaining flits: 13840490 13847976 13847978 13862492 13864945 13864947 13872210 13874607 13877013 13879461 [...] (64758 flits)
Measured flits: 13840490 13847976 13847978 13862492 13864945 13864947 13872210 13874607 13879462 13886659 [...] (256 flits)
Draining remaining packets ...
Time taken is 6802 cycles
====== Traffic class 0 ======
Overall minimum packet latency = 5 (1 samples)
Overall average packet latency = 34.4772 (1 samples)
Overall maximum packet latency = 3540 (1 samples)
Overall minimum network latency = 5 (1 samples)
Overall average network latency = 27.2821 (1 samples)
Overall maximum network latency = 379 (1 samples)
Overall minimum flit latency = 5 (1 samples)
Overall average flit latency = 26.4376 (1 samples)
Overall maximum flit latency = 379 (1 samples)
Overall minimum fragmentation = 0 (1 samples)
Overall average fragmentation = 0 (1 samples)
Overall maximum fragmentation = 0 (1 samples)
Overall minimum injected packet rate = 0.142667 (1 samples)
Overall average injected packet rate = 0.299539 (1 samples)
Overall maximum injected packet rate = 0.352667 (1 samples)
Overall minimum accepted packet rate = 0.143333 (1 samples)
Overall average accepted packet rate = 0.299519 (1 samples)
Overall maximum accepted packet rate = 0.352667 (1 samples)
Overall minimum injected flit rate = 0.142667 (1 samples)
Overall average injected flit rate = 0.299539 (1 samples)
Overall maximum injected flit rate = 0.352667 (1 samples)
Overall minimum accepted flit rate = 0.143333 (1 samples)
Overall average accepted flit rate = 0.299519 (1 samples)
Overall maximum accepted flit rate = 0.352667 (1 samples)
Overall average injected packet size = 1 (1 samples)
Overall average accepted packet size = 1 (1 samples)
Overall average hops = 6.63645 (1 samples)
Total run time 2451.73
