BEGIN Configuration File: ./DF.conf
injection_rate = 0.4;
traffic = bitcomp;
use_size_power_of_two = yes;
routing_function = ugal;
vc_buf_size = 16;
topology = dragonflynew;
//use_noc_latency = 0;
//hold_switch_for_packet=0;

k = 7;
n = 1;

packet_size  = 1;
num_vcs      = 3;
vc_allocator = separable_input_first; 
sw_allocator = separable_input_first;

alloc_iters   = 1;
sample_period = 500;

wait_for_tail_credit = 0;
use_read_write       = 0;

credit_delay   = 2;
routing_delay  = 0;
vc_alloc_delay = 1;
sw_alloc_delay = 1;
st_final_delay = 1;

input_speedup     = 1;
output_speedup    = 1;
internal_speedup  = 2.0;

warmup_periods = 3;
sim_count      = 1;

priority = none;
injection_rate_uses_flits=1;

END Configuration File: ./DF.conf
Number of nodes: 9702
Number of routers: 1386
 Dragonfly 
 p = 7 n = 1
 each switch - total radix =  27
 # of switches = 1386
 # of channels = 27720
 # of nodes ( size of network ) = 9702
 # of groups (_g) = 99
 # of routers per group (_a) = 14
Done links


Power of two: 8192
#################################################################################
0
Class 0:
Minimum packet latency = 5
Average packet latency = 31.1871
Maximum packet latency = 371
Minimum network latency = 5
Average network latency = 31.1868
Maximum network latency = 371
Slowest packet = 374811
Minimum flit latency = 5
Average flit latency = 31.1868
Maximum flit latency = 371
Slowest flit = 374811
Minimum fragmentation = 0
Average fragmentation = 0
Maximum fragmentation = 0
Minimum injected packet rate = 0.23 (at node 4090)
Average injected packet rate = 0.399104
Maximum injected packet rate = 0.48 (at node 734)
Minimum accepted packet rate = 0.128 (at node 4097)
Average accepted packet rate = 0.373515
Maximum accepted packet rate = 0.448 (at node 1574)
Minimum injected flit rate = 0.23 (at node 4090)
Average injected flit rate = 0.399104
Maximum injected flit rate = 0.48 (at node 734)
Minimum accepted flit rate = 0.128 (at node 4097)
Average accepted flit rate = 0.373515
Maximum accepted flit rate = 0.448 (at node 1574)
Average injected packet length = 1
Average accepted packet length = 1
Total in-flight flits = 104838 (0 measured)
latency change    = 1
throughput change = 1
0
Class 0:
Minimum packet latency = 5
Average packet latency = 31.7103
Maximum packet latency = 716
Minimum network latency = 5
Average network latency = 31.6184
Maximum network latency = 437
Slowest packet = 446962
Minimum flit latency = 5
Average flit latency = 31.6184
Maximum flit latency = 437
Slowest flit = 1832410
Minimum fragmentation = 0
Average fragmentation = 0
Maximum fragmentation = 0
Minimum injected packet rate = 0.175 (at node 4098)
Average injected packet rate = 0.399022
Maximum injected packet rate = 0.461 (at node 5590)
Minimum accepted packet rate = 0.125 (at node 4090)
Average accepted packet rate = 0.386322
Maximum accepted packet rate = 0.446 (at node 2601)
Minimum injected flit rate = 0.175 (at node 4098)
Average injected flit rate = 0.399022
Maximum injected flit rate = 0.461 (at node 5590)
Minimum accepted flit rate = 0.125 (at node 4090)
Average accepted flit rate = 0.386322
Maximum accepted flit rate = 0.446 (at node 2601)
Average injected packet length = 1
Average accepted packet length = 1
Total in-flight flits = 104068 (0 measured)
latency change    = 0.0164985
throughput change = 0.0331515
0
Class 0:
Minimum packet latency = 5
Average packet latency = 32.6337
Maximum packet latency = 1054
Minimum network latency = 5
Average network latency = 32.0172
Maximum network latency = 447
Slowest packet = 2093813
Minimum flit latency = 5
Average flit latency = 32.0172
Maximum flit latency = 447
Slowest flit = 2071107
Minimum fragmentation = 0
Average fragmentation = 0
Maximum fragmentation = 0
Minimum injected packet rate = 0.132 (at node 4099)
Average injected packet rate = 0.398996
Maximum injected packet rate = 0.496 (at node 7835)
Minimum accepted packet rate = 0.132 (at node 4090)
Average accepted packet rate = 0.398816
Maximum accepted packet rate = 0.492 (at node 356)
Minimum injected flit rate = 0.132 (at node 4099)
Average injected flit rate = 0.398996
Maximum injected flit rate = 0.496 (at node 7835)
Minimum accepted flit rate = 0.132 (at node 4090)
Average accepted flit rate = 0.398816
Maximum accepted flit rate = 0.492 (at node 356)
Average injected packet length = 1
Average accepted packet length = 1
Total in-flight flits = 104808 (0 measured)
latency change    = 0.0282987
throughput change = 0.0313281
Warmed up ...Time used is 1500 cycles
1
Class 0:
Minimum packet latency = 5
Average packet latency = 31.9984
Maximum packet latency = 1414
Minimum network latency = 5
Average network latency = 31.6084
Maximum network latency = 414
Slowest packet = 4911359
Minimum flit latency = 5
Average flit latency = 31.9927
Maximum flit latency = 414
Slowest flit = 5087866
Minimum fragmentation = 0
Average fragmentation = 0
Maximum fragmentation = 0
Minimum injected packet rate = 0.124 (at node 4098)
Average injected packet rate = 0.398705
Maximum injected packet rate = 0.496 (at node 6018)
Minimum accepted packet rate = 0.122 (at node 4092)
Average accepted packet rate = 0.398688
Maximum accepted packet rate = 0.48 (at node 2173)
Minimum injected flit rate = 0.124 (at node 4098)
Average injected flit rate = 0.398705
Maximum injected flit rate = 0.496 (at node 6018)
Minimum accepted flit rate = 0.122 (at node 4092)
Average accepted flit rate = 0.398688
Maximum accepted flit rate = 0.48 (at node 2173)
Average injected packet length = 1
Average accepted packet length = 1
Total in-flight flits = 104874 (104874 measured)
latency change    = 0.0198562
throughput change = 0.000319652
1
Class 0:
Minimum packet latency = 5
Average packet latency = 32.7828
Maximum packet latency = 1748
Minimum network latency = 5
Average network latency = 31.8412
Maximum network latency = 442
Slowest packet = 4911359
Minimum flit latency = 5
Average flit latency = 32.0256
Maximum flit latency = 442
Slowest flit = 6469066
Minimum fragmentation = 0
Average fragmentation = 0
Maximum fragmentation = 0
Minimum injected packet rate = 0.127 (at node 4092)
Average injected packet rate = 0.398982
Maximum injected packet rate = 0.458 (at node 2219)
Minimum accepted packet rate = 0.127 (at node 4098)
Average accepted packet rate = 0.399056
Maximum accepted packet rate = 0.459 (at node 6481)
Minimum injected flit rate = 0.127 (at node 4092)
Average injected flit rate = 0.398982
Maximum injected flit rate = 0.458 (at node 2219)
Minimum accepted flit rate = 0.127 (at node 4098)
Average accepted flit rate = 0.399056
Maximum accepted flit rate = 0.459 (at node 6481)
Average injected packet length = 1
Average accepted packet length = 1
Total in-flight flits = 104197 (104197 measured)
latency change    = 0.0239292
throughput change = 0.000921669
1
Class 0:
Minimum packet latency = 5
Average packet latency = 33.1802
Maximum packet latency = 2094
Minimum network latency = 5
Average network latency = 31.9051
Maximum network latency = 442
Slowest packet = 4911359
Minimum flit latency = 5
Average flit latency = 32.0267
Maximum flit latency = 442
Slowest flit = 6469066
Minimum fragmentation = 0
Average fragmentation = 0
Maximum fragmentation = 0
Minimum injected packet rate = 0.128 (at node 4097)
Average injected packet rate = 0.399086
Maximum injected packet rate = 0.451333 (at node 3494)
Minimum accepted packet rate = 0.128 (at node 4092)
Average accepted packet rate = 0.399085
Maximum accepted packet rate = 0.452667 (at node 4697)
Minimum injected flit rate = 0.128 (at node 4097)
Average injected flit rate = 0.399086
Maximum injected flit rate = 0.451333 (at node 3494)
Minimum accepted flit rate = 0.128 (at node 4092)
Average accepted flit rate = 0.399085
Maximum accepted flit rate = 0.452667 (at node 4697)
Average injected packet length = 1
Average accepted packet length = 1
Total in-flight flits = 104812 (104812 measured)
latency change    = 0.0119745
throughput change = 7.26964e-05
Draining all recorded packets ...
Class 0:
Remaining flits: 11711551 11727679 11740911 11744274 11760504 11763842 11770284 11780085 11783300 11789865 [...] (104608 flits)
Measured flits: 11711551 11727679 11740911 11744274 11760504 11763842 11770284 11780085 11783300 11789865 [...] (1525 flits)
Class 0:
Remaining flits: 15047481 15060572 15063821 15077086 15077087 15083537 15093379 15093380 15103268 15106559 [...] (104970 flits)
Measured flits: 15047481 15060572 15063821 15077086 15077087 15083537 15093379 15093380 15103268 15106559 [...] (1528 flits)
Class 0:
Remaining flits: 18233789 18260090 18269912 18286347 18289575 18296023 18302512 18305780 18305781 18315619 [...] (104697 flits)
Measured flits: 18233789 18260090 18269912 18286347 18289575 18296023 18302512 18305780 18305781 18315619 [...] (1525 flits)
Class 0:
Remaining flits: 21604605 21617762 21627722 21630970 21630971 21640720 21647236 21656937 21670067 21670069 [...] (105116 flits)
Measured flits: 21604605 21617762 21627722 21630970 21630971 21640720 21647236 21656937 21670067 21670069 [...] (1484 flits)
Class 0:
Remaining flits: 24814138 24820745 24840511 24853510 24856801 24870024 24876558 24879822 24883051 24886259 [...] (104460 flits)
Measured flits: 24814138 24820745 24840511 24853510 24856801 24870024 24876558 24879822 24883051 24886259 [...] (569 flits)
Class 0:
Remaining flits: 27962761 27969224 27989003 28002109 28005405 28005406 28021783 28028411 28034975 28038285 [...] (103847 flits)
Measured flits: 27962761 27969224 27989003 28002109 28005405 28005406 28021783 28028411 28034975 28038285 [...] (222 flits)
Draining remaining packets ...
Time taken is 9843 cycles
====== Traffic class 0 ======
Overall minimum packet latency = 5 (1 samples)
Overall average packet latency = 49.1229 (1 samples)
Overall maximum packet latency = 6571 (1 samples)
Overall minimum network latency = 5 (1 samples)
Overall average network latency = 33.339 (1 samples)
Overall maximum network latency = 442 (1 samples)
Overall minimum flit latency = 5 (1 samples)
Overall average flit latency = 32.0716 (1 samples)
Overall maximum flit latency = 442 (1 samples)
Overall minimum fragmentation = 0 (1 samples)
Overall average fragmentation = 0 (1 samples)
Overall maximum fragmentation = 0 (1 samples)
Overall minimum injected packet rate = 0.128 (1 samples)
Overall average injected packet rate = 0.399086 (1 samples)
Overall maximum injected packet rate = 0.451333 (1 samples)
Overall minimum accepted packet rate = 0.128 (1 samples)
Overall average accepted packet rate = 0.399085 (1 samples)
Overall maximum accepted packet rate = 0.452667 (1 samples)
Overall minimum injected flit rate = 0.128 (1 samples)
Overall average injected flit rate = 0.399086 (1 samples)
Overall maximum injected flit rate = 0.451333 (1 samples)
Overall minimum accepted flit rate = 0.128 (1 samples)
Overall average accepted flit rate = 0.399085 (1 samples)
Overall maximum accepted flit rate = 0.452667 (1 samples)
Overall average injected packet size = 1 (1 samples)
Overall average accepted packet size = 1 (1 samples)
Overall average hops = 6.62664 (1 samples)
Total run time 4678.73
