BEGIN Configuration File: ./DF.conf
injection_rate = 0.2;
traffic = bitcomp;
use_size_power_of_two = yes;
routing_function = ugal;
vc_buf_size = 16;
topology = dragonflynew;
//use_noc_latency = 0;
//hold_switch_for_packet=0;

k = 7;
n = 1;

packet_size  = 1;
num_vcs      = 3;
vc_allocator = separable_input_first; 
sw_allocator = separable_input_first;

alloc_iters   = 1;
sample_period = 500;

wait_for_tail_credit = 0;
use_read_write       = 0;

credit_delay   = 2;
routing_delay  = 0;
vc_alloc_delay = 1;
sw_alloc_delay = 1;
st_final_delay = 1;

input_speedup     = 1;
output_speedup    = 1;
internal_speedup  = 2.0;

warmup_periods = 3;
sim_count      = 1;

priority = none;
injection_rate_uses_flits=1;

END Configuration File: ./DF.conf
Number of nodes: 9702
Number of routers: 1386
 Dragonfly 
 p = 7 n = 1
 each switch - total radix =  27
 # of switches = 1386
 # of channels = 27720
 # of nodes ( size of network ) = 9702
 # of groups (_g) = 99
 # of routers per group (_a) = 14
Done links


Power of two: 8192
#################################################################################
0
Class 0:
Minimum packet latency = 5
Average packet latency = 23.7371
Maximum packet latency = 221
Minimum network latency = 5
Average network latency = 23.7371
Maximum network latency = 221
Slowest packet = 421596
Minimum flit latency = 5
Average flit latency = 23.7371
Maximum flit latency = 221
Slowest flit = 421596
Minimum fragmentation = 0
Average fragmentation = 0
Maximum fragmentation = 0
Minimum injected packet rate = 0.134 (at node 7550)
Average injected packet rate = 0.199756
Maximum injected packet rate = 0.272 (at node 238)
Minimum accepted packet rate = 0.126 (at node 641)
Average accepted packet rate = 0.19016
Maximum accepted packet rate = 0.26 (at node 7953)
Minimum injected flit rate = 0.134 (at node 7550)
Average injected flit rate = 0.199756
Maximum injected flit rate = 0.272 (at node 238)
Minimum accepted flit rate = 0.126 (at node 641)
Average accepted flit rate = 0.19016
Maximum accepted flit rate = 0.26 (at node 7953)
Average injected packet length = 1
Average accepted packet length = 1
Total in-flight flits = 39303 (0 measured)
latency change    = 1
throughput change = 1
0
Class 0:
Minimum packet latency = 5
Average packet latency = 23.8656
Maximum packet latency = 314
Minimum network latency = 5
Average network latency = 23.8655
Maximum network latency = 313
Slowest packet = 1089564
Minimum flit latency = 5
Average flit latency = 23.8655
Maximum flit latency = 313
Slowest flit = 1089564
Minimum fragmentation = 0
Average fragmentation = 0
Maximum fragmentation = 0
Minimum injected packet rate = 0.154 (at node 7630)
Average injected packet rate = 0.199975
Maximum injected packet rate = 0.246 (at node 1135)
Minimum accepted packet rate = 0.151 (at node 561)
Average accepted packet rate = 0.195174
Maximum accepted packet rate = 0.243 (at node 7056)
Minimum injected flit rate = 0.154 (at node 7630)
Average injected flit rate = 0.199975
Maximum injected flit rate = 0.246 (at node 1135)
Minimum accepted flit rate = 0.151 (at node 561)
Average accepted flit rate = 0.195174
Maximum accepted flit rate = 0.243 (at node 7056)
Average injected packet length = 1
Average accepted packet length = 1
Total in-flight flits = 39333 (0 measured)
latency change    = 0.00538391
throughput change = 0.025687
0
Class 0:
Minimum packet latency = 5
Average packet latency = 24.1952
Maximum packet latency = 346
Minimum network latency = 5
Average network latency = 24.1939
Maximum network latency = 323
Slowest packet = 1148688
Minimum flit latency = 5
Average flit latency = 24.1939
Maximum flit latency = 323
Slowest flit = 1734139
Minimum fragmentation = 0
Average fragmentation = 0
Maximum fragmentation = 0
Minimum injected packet rate = 0.138 (at node 730)
Average injected packet rate = 0.20011
Maximum injected packet rate = 0.268 (at node 1908)
Minimum accepted packet rate = 0.132 (at node 7461)
Average accepted packet rate = 0.199974
Maximum accepted packet rate = 0.272 (at node 6283)
Minimum injected flit rate = 0.138 (at node 730)
Average injected flit rate = 0.20011
Maximum injected flit rate = 0.268 (at node 1908)
Minimum accepted flit rate = 0.132 (at node 7461)
Average accepted flit rate = 0.199974
Maximum accepted flit rate = 0.272 (at node 6283)
Average injected packet length = 1
Average accepted packet length = 1
Total in-flight flits = 39895 (0 measured)
latency change    = 0.0136208
throughput change = 0.0240034
Warmed up ...Time used is 1500 cycles
1
Class 0:
Minimum packet latency = 5
Average packet latency = 24.0486
Maximum packet latency = 491
Minimum network latency = 5
Average network latency = 24.0146
Maximum network latency = 318
Slowest packet = 2468502
Minimum flit latency = 5
Average flit latency = 24.3326
Maximum flit latency = 318
Slowest flit = 2574281
Minimum fragmentation = 0
Average fragmentation = 0
Maximum fragmentation = 0
Minimum injected packet rate = 0.14 (at node 416)
Average injected packet rate = 0.199751
Maximum injected packet rate = 0.268 (at node 1472)
Minimum accepted packet rate = 0.14 (at node 3148)
Average accepted packet rate = 0.199752
Maximum accepted packet rate = 0.268 (at node 2462)
Minimum injected flit rate = 0.14 (at node 416)
Average injected flit rate = 0.199751
Maximum injected flit rate = 0.268 (at node 1472)
Minimum accepted flit rate = 0.14 (at node 3148)
Average accepted flit rate = 0.199752
Maximum accepted flit rate = 0.268 (at node 2462)
Average injected packet length = 1
Average accepted packet length = 1
Total in-flight flits = 39897 (39897 measured)
latency change    = 0.00609471
throughput change = 0.00110855
1
Class 0:
Minimum packet latency = 5
Average packet latency = 24.3252
Maximum packet latency = 557
Minimum network latency = 5
Average network latency = 24.2208
Maximum network latency = 318
Slowest packet = 2468502
Minimum flit latency = 5
Average flit latency = 24.3746
Maximum flit latency = 318
Slowest flit = 2574281
Minimum fragmentation = 0
Average fragmentation = 0
Maximum fragmentation = 0
Minimum injected packet rate = 0.153 (at node 104)
Average injected packet rate = 0.199994
Maximum injected packet rate = 0.248 (at node 747)
Minimum accepted packet rate = 0.152 (at node 8087)
Average accepted packet rate = 0.199986
Maximum accepted packet rate = 0.247 (at node 6875)
Minimum injected flit rate = 0.153 (at node 104)
Average injected flit rate = 0.199994
Maximum injected flit rate = 0.248 (at node 747)
Minimum accepted flit rate = 0.152 (at node 8087)
Average accepted flit rate = 0.199986
Maximum accepted flit rate = 0.247 (at node 6875)
Average injected packet length = 1
Average accepted packet length = 1
Total in-flight flits = 39974 (39974 measured)
latency change    = 0.0113698
throughput change = 0.00116707
1
Class 0:
Minimum packet latency = 5
Average packet latency = 24.4658
Maximum packet latency = 724
Minimum network latency = 5
Average network latency = 24.2992
Maximum network latency = 328
Slowest packet = 2468502
Minimum flit latency = 5
Average flit latency = 24.4004
Maximum flit latency = 328
Slowest flit = 4118198
Minimum fragmentation = 0
Average fragmentation = 0
Maximum fragmentation = 0
Minimum injected packet rate = 0.159333 (at node 5597)
Average injected packet rate = 0.200054
Maximum injected packet rate = 0.241333 (at node 7101)
Minimum accepted packet rate = 0.158 (at node 2594)
Average accepted packet rate = 0.200024
Maximum accepted packet rate = 0.24 (at node 1090)
Minimum injected flit rate = 0.159333 (at node 5597)
Average injected flit rate = 0.200054
Maximum injected flit rate = 0.241333 (at node 7101)
Minimum accepted flit rate = 0.158 (at node 2594)
Average accepted flit rate = 0.200024
Maximum accepted flit rate = 0.24 (at node 1090)
Average injected packet length = 1
Average accepted packet length = 1
Total in-flight flits = 40286 (40286 measured)
latency change    = 0.00574997
throughput change = 0.00018878
Draining all recorded packets ...
Draining remaining packets ...
Time taken is 4176 cycles
====== Traffic class 0 ======
Overall minimum packet latency = 5 (1 samples)
Overall average packet latency = 24.9238 (1 samples)
Overall maximum packet latency = 914 (1 samples)
Overall minimum network latency = 5 (1 samples)
Overall average network latency = 24.5487 (1 samples)
Overall maximum network latency = 328 (1 samples)
Overall minimum flit latency = 5 (1 samples)
Overall average flit latency = 24.5254 (1 samples)
Overall maximum flit latency = 328 (1 samples)
Overall minimum fragmentation = 0 (1 samples)
Overall average fragmentation = 0 (1 samples)
Overall maximum fragmentation = 0 (1 samples)
Overall minimum injected packet rate = 0.159333 (1 samples)
Overall average injected packet rate = 0.200054 (1 samples)
Overall maximum injected packet rate = 0.241333 (1 samples)
Overall minimum accepted packet rate = 0.158 (1 samples)
Overall average accepted packet rate = 0.200024 (1 samples)
Overall maximum accepted packet rate = 0.24 (1 samples)
Overall minimum injected flit rate = 0.159333 (1 samples)
Overall average injected flit rate = 0.200054 (1 samples)
Overall maximum injected flit rate = 0.241333 (1 samples)
Overall minimum accepted flit rate = 0.158 (1 samples)
Overall average accepted flit rate = 0.200024 (1 samples)
Overall maximum accepted flit rate = 0.24 (1 samples)
Overall average injected packet size = 1 (1 samples)
Overall average accepted packet size = 1 (1 samples)
Overall average hops = 6.6425 (1 samples)
Total run time 1050.42
