BEGIN Configuration File: ./DF.conf
injection_rate = 0.8;
traffic = asymmetric;
use_size_power_of_two = no;
routing_function = ugal;
vc_buf_size = 16;
topology = dragonflynew;
//use_noc_latency = 0;
//hold_switch_for_packet=0;

k = 7;
n = 1;

packet_size  = 1;
num_vcs      = 3;
vc_allocator = separable_input_first; 
sw_allocator = separable_input_first;

alloc_iters   = 1;
sample_period = 500;

wait_for_tail_credit = 0;
use_read_write       = 0;

credit_delay   = 2;
routing_delay  = 0;
vc_alloc_delay = 1;
sw_alloc_delay = 1;
st_final_delay = 1;

input_speedup     = 1;
output_speedup    = 1;
internal_speedup  = 2.0;

warmup_periods = 3;
sim_count      = 1;

priority = none;
injection_rate_uses_flits=1;

END Configuration File: ./DF.conf
Number of nodes: 9702
Number of routers: 1386
 Dragonfly 
 p = 7 n = 1
 each switch - total radix =  27
 # of switches = 1386
 # of channels = 27720
 # of nodes ( size of network ) = 9702
 # of groups (_g) = 99
 # of routers per group (_a) = 14
Done links
0
Class 0:
Minimum packet latency = 5
Average packet latency = 21.8474
Maximum packet latency = 134
Minimum network latency = 5
Average network latency = 21.8465
Maximum network latency = 134
Slowest packet = 2399897
Minimum flit latency = 5
Average flit latency = 21.8465
Maximum flit latency = 134
Slowest flit = 2399897
Minimum fragmentation = 0
Average fragmentation = 0
Maximum fragmentation = 0
Minimum injected packet rate = 0.73 (at node 1568)
Average injected packet rate = 0.799868
Maximum injected packet rate = 0.858 (at node 8932)
Minimum accepted packet rate = 0.644 (at node 2743)
Average accepted packet rate = 0.761727
Maximum accepted packet rate = 0.872 (at node 6254)
Minimum injected flit rate = 0.73 (at node 1568)
Average injected flit rate = 0.799868
Maximum injected flit rate = 0.858 (at node 8932)
Minimum accepted flit rate = 0.644 (at node 2743)
Average accepted flit rate = 0.761727
Maximum accepted flit rate = 0.872 (at node 6254)
Average injected packet length = 1
Average accepted packet length = 1
Total in-flight flits = 185025 (0 measured)
latency change    = 1
throughput change = 1
0
Class 0:
Minimum packet latency = 5
Average packet latency = 22.881
Maximum packet latency = 155
Minimum network latency = 5
Average network latency = 22.8789
Maximum network latency = 155
Slowest packet = 5949575
Minimum flit latency = 5
Average flit latency = 22.8789
Maximum flit latency = 155
Slowest flit = 5949575
Minimum fragmentation = 0
Average fragmentation = 0
Maximum fragmentation = 0
Minimum injected packet rate = 0.747 (at node 5530)
Average injected packet rate = 0.799928
Maximum injected packet rate = 0.848 (at node 8117)
Minimum accepted packet rate = 0.702 (at node 7886)
Average accepted packet rate = 0.780787
Maximum accepted packet rate = 0.869 (at node 6254)
Minimum injected flit rate = 0.747 (at node 5530)
Average injected flit rate = 0.799928
Maximum injected flit rate = 0.848 (at node 8117)
Minimum accepted flit rate = 0.702 (at node 7886)
Average accepted flit rate = 0.780787
Maximum accepted flit rate = 0.869 (at node 6254)
Average injected packet length = 1
Average accepted packet length = 1
Total in-flight flits = 185708 (0 measured)
latency change    = 0.0451714
throughput change = 0.0244112
0
Class 0:
Minimum packet latency = 5
Average packet latency = 23.912
Maximum packet latency = 129
Minimum network latency = 5
Average network latency = 23.909
Maximum network latency = 129
Slowest packet = 9719910
Minimum flit latency = 5
Average flit latency = 23.909
Maximum flit latency = 129
Slowest flit = 9719910
Minimum fragmentation = 0
Average fragmentation = 0
Maximum fragmentation = 0
Minimum injected packet rate = 0.724 (at node 2427)
Average injected packet rate = 0.799866
Maximum injected packet rate = 0.862 (at node 1553)
Minimum accepted packet rate = 0.672 (at node 5035)
Average accepted packet rate = 0.800004
Maximum accepted packet rate = 0.898 (at node 184)
Minimum injected flit rate = 0.724 (at node 2427)
Average injected flit rate = 0.799866
Maximum injected flit rate = 0.862 (at node 1553)
Minimum accepted flit rate = 0.672 (at node 5035)
Average accepted flit rate = 0.800004
Maximum accepted flit rate = 0.898 (at node 184)
Average injected packet length = 1
Average accepted packet length = 1
Total in-flight flits = 185036 (0 measured)
latency change    = 0.043116
throughput change = 0.024021
Warmed up ...Time used is 1500 cycles
1
Class 0:
Minimum packet latency = 5
Average packet latency = 23.3603
Maximum packet latency = 137
Minimum network latency = 5
Average network latency = 23.3574
Maximum network latency = 137
Slowest packet = 14110254
Minimum flit latency = 5
Average flit latency = 23.957
Maximum flit latency = 137
Slowest flit = 14110254
Minimum fragmentation = 0
Average fragmentation = 0
Maximum fragmentation = 0
Minimum injected packet rate = 0.724 (at node 3670)
Average injected packet rate = 0.800046
Maximum injected packet rate = 0.866 (at node 4423)
Minimum accepted packet rate = 0.664 (at node 8016)
Average accepted packet rate = 0.79993
Maximum accepted packet rate = 0.9 (at node 4168)
Minimum injected flit rate = 0.724 (at node 3670)
Average injected flit rate = 0.800046
Maximum injected flit rate = 0.866 (at node 4423)
Minimum accepted flit rate = 0.664 (at node 8016)
Average accepted flit rate = 0.79993
Maximum accepted flit rate = 0.9 (at node 4168)
Average injected packet length = 1
Average accepted packet length = 1
Total in-flight flits = 185598 (185598 measured)
latency change    = 0.023617
throughput change = 9.19994e-05
1
Class 0:
Minimum packet latency = 5
Average packet latency = 23.6973
Maximum packet latency = 160
Minimum network latency = 5
Average network latency = 23.6937
Maximum network latency = 160
Slowest packet = 15791938
Minimum flit latency = 5
Average flit latency = 23.9855
Maximum flit latency = 160
Slowest flit = 15791938
Minimum fragmentation = 0
Average fragmentation = 0
Maximum fragmentation = 0
Minimum injected packet rate = 0.753 (at node 7263)
Average injected packet rate = 0.800083
Maximum injected packet rate = 0.849 (at node 4142)
Minimum accepted packet rate = 0.714 (at node 5379)
Average accepted packet rate = 0.799935
Maximum accepted packet rate = 0.88 (at node 9609)
Minimum injected flit rate = 0.753 (at node 7263)
Average injected flit rate = 0.800083
Maximum injected flit rate = 0.849 (at node 4142)
Minimum accepted flit rate = 0.714 (at node 5379)
Average accepted flit rate = 0.799935
Maximum accepted flit rate = 0.88 (at node 9609)
Average injected packet length = 1
Average accepted packet length = 1
Total in-flight flits = 186472 (186472 measured)
latency change    = 0.0142205
throughput change = 6.44249e-06
1
Class 0:
Minimum packet latency = 5
Average packet latency = 23.7974
Maximum packet latency = 162
Minimum network latency = 5
Average network latency = 23.7939
Maximum network latency = 160
Slowest packet = 15791938
Minimum flit latency = 5
Average flit latency = 23.9868
Maximum flit latency = 160
Slowest flit = 15791938
Minimum fragmentation = 0
Average fragmentation = 0
Maximum fragmentation = 0
Minimum injected packet rate = 0.760667 (at node 9268)
Average injected packet rate = 0.800045
Maximum injected packet rate = 0.844667 (at node 4142)
Minimum accepted packet rate = 0.728 (at node 5379)
Average accepted packet rate = 0.79998
Maximum accepted packet rate = 0.876 (at node 4475)
Minimum injected flit rate = 0.760667 (at node 9268)
Average injected flit rate = 0.800045
Maximum injected flit rate = 0.844667 (at node 4142)
Minimum accepted flit rate = 0.728 (at node 5379)
Average accepted flit rate = 0.79998
Maximum accepted flit rate = 0.876 (at node 4475)
Average injected packet length = 1
Average accepted packet length = 1
Total in-flight flits = 185975 (185975 measured)
latency change    = 0.00420849
throughput change = 5.62613e-05
Draining all recorded packets ...
Draining remaining packets ...
Time taken is 3182 cycles
====== Traffic class 0 ======
Overall minimum packet latency = 5 (1 samples)
Overall average packet latency = 23.9942 (1 samples)
Overall maximum packet latency = 162 (1 samples)
Overall minimum network latency = 5 (1 samples)
Overall average network latency = 23.9906 (1 samples)
Overall maximum network latency = 160 (1 samples)
Overall minimum flit latency = 5 (1 samples)
Overall average flit latency = 24.1176 (1 samples)
Overall maximum flit latency = 160 (1 samples)
Overall minimum fragmentation = 0 (1 samples)
Overall average fragmentation = 0 (1 samples)
Overall maximum fragmentation = 0 (1 samples)
Overall minimum injected packet rate = 0.760667 (1 samples)
Overall average injected packet rate = 0.800045 (1 samples)
Overall maximum injected packet rate = 0.844667 (1 samples)
Overall minimum accepted packet rate = 0.728 (1 samples)
Overall average accepted packet rate = 0.79998 (1 samples)
Overall maximum accepted packet rate = 0.876 (1 samples)
Overall minimum injected flit rate = 0.760667 (1 samples)
Overall average injected flit rate = 0.800045 (1 samples)
Overall maximum injected flit rate = 0.844667 (1 samples)
Overall minimum accepted flit rate = 0.728 (1 samples)
Overall average accepted flit rate = 0.79998 (1 samples)
Overall maximum accepted flit rate = 0.876 (1 samples)
Overall average injected packet size = 1 (1 samples)
Overall average accepted packet size = 1 (1 samples)
Overall average hops = 3.82553 (1 samples)
Total run time 2138.1
