BEGIN Configuration File: ./DF.conf
injection_rate = 0.4;
traffic = asymmetric;
use_size_power_of_two = no;
routing_function = ugal;
vc_buf_size = 16;
topology = dragonflynew;
//use_noc_latency = 0;
//hold_switch_for_packet=0;

k = 7;
n = 1;

packet_size  = 1;
num_vcs      = 3;
vc_allocator = separable_input_first; 
sw_allocator = separable_input_first;

alloc_iters   = 1;
sample_period = 500;

wait_for_tail_credit = 0;
use_read_write       = 0;

credit_delay   = 2;
routing_delay  = 0;
vc_alloc_delay = 1;
sw_alloc_delay = 1;
st_final_delay = 1;

input_speedup     = 1;
output_speedup    = 1;
internal_speedup  = 2.0;

warmup_periods = 3;
sim_count      = 1;

priority = none;
injection_rate_uses_flits=1;

END Configuration File: ./DF.conf
Number of nodes: 9702
Number of routers: 1386
 Dragonfly 
 p = 7 n = 1
 each switch - total radix =  27
 # of switches = 1386
 # of channels = 27720
 # of nodes ( size of network ) = 9702
 # of groups (_g) = 99
 # of routers per group (_a) = 14
Done links
0
Class 0:
Minimum packet latency = 5
Average packet latency = 14.485
Maximum packet latency = 41
Minimum network latency = 5
Average network latency = 14.485
Maximum network latency = 41
Slowest packet = 838968
Minimum flit latency = 5
Average flit latency = 14.485
Maximum flit latency = 41
Slowest flit = 838968
Minimum fragmentation = 0
Average fragmentation = 0
Maximum fragmentation = 0
Minimum injected packet rate = 0.32 (at node 3998)
Average injected packet rate = 0.399692
Maximum injected packet rate = 0.484 (at node 8665)
Minimum accepted packet rate = 0.3 (at node 4866)
Average accepted packet rate = 0.387909
Maximum accepted packet rate = 0.494 (at node 5329)
Minimum injected flit rate = 0.32 (at node 3998)
Average injected flit rate = 0.399692
Maximum injected flit rate = 0.484 (at node 8665)
Minimum accepted flit rate = 0.3 (at node 4866)
Average accepted flit rate = 0.387909
Maximum accepted flit rate = 0.494 (at node 5329)
Average injected packet length = 1
Average accepted packet length = 1
Total in-flight flits = 57158 (0 measured)
latency change    = 1
throughput change = 1
0
Class 0:
Minimum packet latency = 5
Average packet latency = 14.5904
Maximum packet latency = 42
Minimum network latency = 5
Average network latency = 14.5904
Maximum network latency = 42
Slowest packet = 1963840
Minimum flit latency = 5
Average flit latency = 14.5904
Maximum flit latency = 42
Slowest flit = 1963840
Minimum fragmentation = 0
Average fragmentation = 0
Maximum fragmentation = 0
Minimum injected packet rate = 0.34 (at node 5233)
Average injected packet rate = 0.399836
Maximum injected packet rate = 0.455 (at node 7006)
Minimum accepted packet rate = 0.332 (at node 1692)
Average accepted packet rate = 0.393971
Maximum accepted packet rate = 0.46 (at node 5636)
Minimum injected flit rate = 0.34 (at node 5233)
Average injected flit rate = 0.399836
Maximum injected flit rate = 0.455 (at node 7006)
Minimum accepted flit rate = 0.332 (at node 1692)
Average accepted flit rate = 0.393971
Maximum accepted flit rate = 0.46 (at node 5636)
Average injected packet length = 1
Average accepted packet length = 1
Total in-flight flits = 56898 (0 measured)
latency change    = 0.00721921
throughput change = 0.0153868
0
Class 0:
Minimum packet latency = 5
Average packet latency = 14.6882
Maximum packet latency = 44
Minimum network latency = 5
Average network latency = 14.6882
Maximum network latency = 44
Slowest packet = 4465087
Minimum flit latency = 5
Average flit latency = 14.6882
Maximum flit latency = 44
Slowest flit = 4465087
Minimum fragmentation = 0
Average fragmentation = 0
Maximum fragmentation = 0
Minimum injected packet rate = 0.322 (at node 1144)
Average injected packet rate = 0.399759
Maximum injected packet rate = 0.478 (at node 490)
Minimum accepted packet rate = 0.292 (at node 8374)
Average accepted packet rate = 0.39979
Maximum accepted packet rate = 0.496 (at node 7764)
Minimum injected flit rate = 0.322 (at node 1144)
Average injected flit rate = 0.399759
Maximum injected flit rate = 0.478 (at node 490)
Minimum accepted flit rate = 0.292 (at node 8374)
Average accepted flit rate = 0.39979
Maximum accepted flit rate = 0.496 (at node 7764)
Average injected packet length = 1
Average accepted packet length = 1
Total in-flight flits = 56744 (0 measured)
latency change    = 0.00666292
throughput change = 0.0145554
Warmed up ...Time used is 1500 cycles
1
Class 0:
Minimum packet latency = 5
Average packet latency = 14.4932
Maximum packet latency = 41
Minimum network latency = 5
Average network latency = 14.4932
Maximum network latency = 41
Slowest packet = 6256292
Minimum flit latency = 5
Average flit latency = 14.6821
Maximum flit latency = 41
Slowest flit = 6256292
Minimum fragmentation = 0
Average fragmentation = 0
Maximum fragmentation = 0
Minimum injected packet rate = 0.3 (at node 7638)
Average injected packet rate = 0.399934
Maximum injected packet rate = 0.48 (at node 3049)
Minimum accepted packet rate = 0.308 (at node 8528)
Average accepted packet rate = 0.399894
Maximum accepted packet rate = 0.496 (at node 3465)
Minimum injected flit rate = 0.3 (at node 7638)
Average injected flit rate = 0.399934
Maximum injected flit rate = 0.48 (at node 3049)
Minimum accepted flit rate = 0.308 (at node 8528)
Average accepted flit rate = 0.399894
Maximum accepted flit rate = 0.496 (at node 3465)
Average injected packet length = 1
Average accepted packet length = 1
Total in-flight flits = 56937 (56937 measured)
latency change    = 0.0134539
throughput change = 0.000258778
1
Class 0:
Minimum packet latency = 5
Average packet latency = 14.5946
Maximum packet latency = 43
Minimum network latency = 5
Average network latency = 14.5946
Maximum network latency = 43
Slowest packet = 9512059
Minimum flit latency = 5
Average flit latency = 14.6875
Maximum flit latency = 43
Slowest flit = 9512059
Minimum fragmentation = 0
Average fragmentation = 0
Maximum fragmentation = 0
Minimum injected packet rate = 0.347 (at node 5895)
Average injected packet rate = 0.400036
Maximum injected packet rate = 0.457 (at node 1519)
Minimum accepted packet rate = 0.336 (at node 5713)
Average accepted packet rate = 0.400012
Maximum accepted packet rate = 0.469 (at node 2583)
Minimum injected flit rate = 0.347 (at node 5895)
Average injected flit rate = 0.400036
Maximum injected flit rate = 0.457 (at node 1519)
Minimum accepted flit rate = 0.336 (at node 5713)
Average accepted flit rate = 0.400012
Maximum accepted flit rate = 0.469 (at node 2583)
Average injected packet length = 1
Average accepted packet length = 1
Total in-flight flits = 56984 (56984 measured)
latency change    = 0.00694521
throughput change = 0.000294518
1
Class 0:
Minimum packet latency = 5
Average packet latency = 14.6264
Maximum packet latency = 43
Minimum network latency = 5
Average network latency = 14.6264
Maximum network latency = 43
Slowest packet = 9512059
Minimum flit latency = 5
Average flit latency = 14.6881
Maximum flit latency = 43
Slowest flit = 9512059
Minimum fragmentation = 0
Average fragmentation = 0
Maximum fragmentation = 0
Minimum injected packet rate = 0.353333 (at node 6016)
Average injected packet rate = 0.400012
Maximum injected packet rate = 0.447333 (at node 7726)
Minimum accepted packet rate = 0.343333 (at node 5713)
Average accepted packet rate = 0.399976
Maximum accepted packet rate = 0.461333 (at node 8574)
Minimum injected flit rate = 0.353333 (at node 6016)
Average injected flit rate = 0.400012
Maximum injected flit rate = 0.447333 (at node 7726)
Minimum accepted flit rate = 0.343333 (at node 5713)
Average accepted flit rate = 0.399976
Maximum accepted flit rate = 0.461333 (at node 8574)
Average injected packet length = 1
Average accepted packet length = 1
Total in-flight flits = 57267 (57267 measured)
latency change    = 0.00217409
throughput change = 8.89045e-05
Draining all recorded packets ...
Draining remaining packets ...
Time taken is 3070 cycles
====== Traffic class 0 ======
Overall minimum packet latency = 5 (1 samples)
Overall average packet latency = 14.6898 (1 samples)
Overall maximum packet latency = 43 (1 samples)
Overall minimum network latency = 5 (1 samples)
Overall average network latency = 14.6898 (1 samples)
Overall maximum network latency = 43 (1 samples)
Overall minimum flit latency = 5 (1 samples)
Overall average flit latency = 14.7475 (1 samples)
Overall maximum flit latency = 43 (1 samples)
Overall minimum fragmentation = 0 (1 samples)
Overall average fragmentation = 0 (1 samples)
Overall maximum fragmentation = 0 (1 samples)
Overall minimum injected packet rate = 0.353333 (1 samples)
Overall average injected packet rate = 0.400012 (1 samples)
Overall maximum injected packet rate = 0.447333 (1 samples)
Overall minimum accepted packet rate = 0.343333 (1 samples)
Overall average accepted packet rate = 0.399976 (1 samples)
Overall maximum accepted packet rate = 0.461333 (1 samples)
Overall minimum injected flit rate = 0.353333 (1 samples)
Overall average injected flit rate = 0.400012 (1 samples)
Overall maximum injected flit rate = 0.447333 (1 samples)
Overall minimum accepted flit rate = 0.343333 (1 samples)
Overall average accepted flit rate = 0.399976 (1 samples)
Overall maximum accepted flit rate = 0.461333 (1 samples)
Overall average injected packet size = 1 (1 samples)
Overall average accepted packet size = 1 (1 samples)
Overall average hops = 3.83502 (1 samples)
Total run time 1275.31
