BEGIN Configuration File: ./DF.conf
injection_rate = 0.6;
traffic = asymmetric;
use_size_power_of_two = no;
routing_function = ugal;
vc_buf_size = 16;
topology = dragonflynew;
//use_noc_latency = 0;
//hold_switch_for_packet=0;

k = 7;
n = 1;

packet_size  = 1;
num_vcs      = 3;
vc_allocator = separable_input_first; 
sw_allocator = separable_input_first;

alloc_iters   = 1;
sample_period = 500;

wait_for_tail_credit = 0;
use_read_write       = 0;

credit_delay   = 2;
routing_delay  = 0;
vc_alloc_delay = 1;
sw_alloc_delay = 1;
st_final_delay = 1;

input_speedup     = 1;
output_speedup    = 1;
internal_speedup  = 2.0;

warmup_periods = 3;
sim_count      = 1;

priority = none;
injection_rate_uses_flits=1;

END Configuration File: ./DF.conf
Number of nodes: 9702
Number of routers: 1386
 Dragonfly 
 p = 7 n = 1
 each switch - total radix =  27
 # of switches = 1386
 # of channels = 27720
 # of nodes ( size of network ) = 9702
 # of groups (_g) = 99
 # of routers per group (_a) = 14
Done links
0
Class 0:
Minimum packet latency = 5
Average packet latency = 16.0434
Maximum packet latency = 61
Minimum network latency = 5
Average network latency = 16.0434
Maximum network latency = 61
Slowest packet = 1660664
Minimum flit latency = 5
Average flit latency = 16.0434
Maximum flit latency = 61
Slowest flit = 1660664
Minimum fragmentation = 0
Average fragmentation = 0
Maximum fragmentation = 0
Minimum injected packet rate = 0.516 (at node 8681)
Average injected packet rate = 0.599729
Maximum injected packet rate = 0.686 (at node 8749)
Minimum accepted packet rate = 0.474 (at node 7142)
Average accepted packet rate = 0.580117
Maximum accepted packet rate = 0.698 (at node 373)
Minimum injected flit rate = 0.516 (at node 8681)
Average injected flit rate = 0.599729
Maximum injected flit rate = 0.686 (at node 8749)
Minimum accepted flit rate = 0.474 (at node 7142)
Average accepted flit rate = 0.580117
Maximum accepted flit rate = 0.698 (at node 373)
Average injected packet length = 1
Average accepted packet length = 1
Total in-flight flits = 95137 (0 measured)
latency change    = 1
throughput change = 1
0
Class 0:
Minimum packet latency = 5
Average packet latency = 16.2054
Maximum packet latency = 61
Minimum network latency = 5
Average network latency = 16.2054
Maximum network latency = 61
Slowest packet = 1660664
Minimum flit latency = 5
Average flit latency = 16.2054
Maximum flit latency = 61
Slowest flit = 1660664
Minimum fragmentation = 0
Average fragmentation = 0
Maximum fragmentation = 0
Minimum injected packet rate = 0.538 (at node 5496)
Average injected packet rate = 0.599813
Maximum injected packet rate = 0.656 (at node 5393)
Minimum accepted packet rate = 0.525 (at node 722)
Average accepted packet rate = 0.589942
Maximum accepted packet rate = 0.67 (at node 579)
Minimum injected flit rate = 0.538 (at node 5496)
Average injected flit rate = 0.599813
Maximum injected flit rate = 0.656 (at node 5393)
Minimum accepted flit rate = 0.525 (at node 722)
Average accepted flit rate = 0.589942
Maximum accepted flit rate = 0.67 (at node 579)
Average injected packet length = 1
Average accepted packet length = 1
Total in-flight flits = 95774 (0 measured)
latency change    = 0.00999479
throughput change = 0.0166545
0
Class 0:
Minimum packet latency = 5
Average packet latency = 16.372
Maximum packet latency = 57
Minimum network latency = 5
Average network latency = 16.372
Maximum network latency = 57
Slowest packet = 5967823
Minimum flit latency = 5
Average flit latency = 16.372
Maximum flit latency = 57
Slowest flit = 5967823
Minimum fragmentation = 0
Average fragmentation = 0
Maximum fragmentation = 0
Minimum injected packet rate = 0.522 (at node 645)
Average injected packet rate = 0.600012
Maximum injected packet rate = 0.68 (at node 8447)
Minimum accepted packet rate = 0.496 (at node 3999)
Average accepted packet rate = 0.600124
Maximum accepted packet rate = 0.712 (at node 323)
Minimum injected flit rate = 0.522 (at node 645)
Average injected flit rate = 0.600012
Maximum injected flit rate = 0.68 (at node 8447)
Minimum accepted flit rate = 0.496 (at node 3999)
Average accepted flit rate = 0.600124
Maximum accepted flit rate = 0.712 (at node 323)
Average injected packet length = 1
Average accepted packet length = 1
Total in-flight flits = 95231 (0 measured)
latency change    = 0.0101765
throughput change = 0.0169662
Warmed up ...Time used is 1500 cycles
1
Class 0:
Minimum packet latency = 5
Average packet latency = 16.1274
Maximum packet latency = 57
Minimum network latency = 5
Average network latency = 16.1274
Maximum network latency = 57
Slowest packet = 9272059
Minimum flit latency = 5
Average flit latency = 16.3815
Maximum flit latency = 57
Slowest flit = 9272059
Minimum fragmentation = 0
Average fragmentation = 0
Maximum fragmentation = 0
Minimum injected packet rate = 0.512 (at node 8510)
Average injected packet rate = 0.600077
Maximum injected packet rate = 0.688 (at node 1844)
Minimum accepted packet rate = 0.5 (at node 1340)
Average accepted packet rate = 0.600028
Maximum accepted packet rate = 0.704 (at node 4424)
Minimum injected flit rate = 0.512 (at node 8510)
Average injected flit rate = 0.600077
Maximum injected flit rate = 0.688 (at node 1844)
Minimum accepted flit rate = 0.5 (at node 1340)
Average accepted flit rate = 0.600028
Maximum accepted flit rate = 0.704 (at node 4424)
Average injected packet length = 1
Average accepted packet length = 1
Total in-flight flits = 95471 (95471 measured)
latency change    = 0.0151675
throughput change = 0.000159753
1
Class 0:
Minimum packet latency = 5
Average packet latency = 16.2502
Maximum packet latency = 62
Minimum network latency = 5
Average network latency = 16.2502
Maximum network latency = 62
Slowest packet = 13908730
Minimum flit latency = 5
Average flit latency = 16.3753
Maximum flit latency = 62
Slowest flit = 13908730
Minimum fragmentation = 0
Average fragmentation = 0
Maximum fragmentation = 0
Minimum injected packet rate = 0.545 (at node 9488)
Average injected packet rate = 0.60011
Maximum injected packet rate = 0.662 (at node 7607)
Minimum accepted packet rate = 0.522 (at node 8194)
Average accepted packet rate = 0.600107
Maximum accepted packet rate = 0.675 (at node 1440)
Minimum injected flit rate = 0.545 (at node 9488)
Average injected flit rate = 0.60011
Maximum injected flit rate = 0.662 (at node 7607)
Minimum accepted flit rate = 0.522 (at node 8194)
Average accepted flit rate = 0.600107
Maximum accepted flit rate = 0.675 (at node 1440)
Average injected packet length = 1
Average accepted packet length = 1
Total in-flight flits = 95266 (95266 measured)
latency change    = 0.00756072
throughput change = 0.000131393
1
Class 0:
Minimum packet latency = 5
Average packet latency = 16.2923
Maximum packet latency = 62
Minimum network latency = 5
Average network latency = 16.2923
Maximum network latency = 62
Slowest packet = 13908730
Minimum flit latency = 5
Average flit latency = 16.3753
Maximum flit latency = 62
Slowest flit = 13908730
Minimum fragmentation = 0
Average fragmentation = 0
Maximum fragmentation = 0
Minimum injected packet rate = 0.556 (at node 2939)
Average injected packet rate = 0.600029
Maximum injected packet rate = 0.648 (at node 6629)
Minimum accepted packet rate = 0.53 (at node 7168)
Average accepted packet rate = 0.600014
Maximum accepted packet rate = 0.660667 (at node 8058)
Minimum injected flit rate = 0.556 (at node 2939)
Average injected flit rate = 0.600029
Maximum injected flit rate = 0.648 (at node 6629)
Minimum accepted flit rate = 0.53 (at node 7168)
Average accepted flit rate = 0.600014
Maximum accepted flit rate = 0.660667 (at node 8058)
Average injected packet length = 1
Average accepted packet length = 1
Total in-flight flits = 95451 (95451 measured)
latency change    = 0.00258564
throughput change = 0.000154661
Draining all recorded packets ...
Draining remaining packets ...
Time taken is 3090 cycles
====== Traffic class 0 ======
Overall minimum packet latency = 5 (1 samples)
Overall average packet latency = 16.3761 (1 samples)
Overall maximum packet latency = 62 (1 samples)
Overall minimum network latency = 5 (1 samples)
Overall average network latency = 16.3761 (1 samples)
Overall maximum network latency = 62 (1 samples)
Overall minimum flit latency = 5 (1 samples)
Overall average flit latency = 16.4472 (1 samples)
Overall maximum flit latency = 62 (1 samples)
Overall minimum fragmentation = 0 (1 samples)
Overall average fragmentation = 0 (1 samples)
Overall maximum fragmentation = 0 (1 samples)
Overall minimum injected packet rate = 0.556 (1 samples)
Overall average injected packet rate = 0.600029 (1 samples)
Overall maximum injected packet rate = 0.648 (1 samples)
Overall minimum accepted packet rate = 0.53 (1 samples)
Overall average accepted packet rate = 0.600014 (1 samples)
Overall maximum accepted packet rate = 0.660667 (1 samples)
Overall minimum injected flit rate = 0.556 (1 samples)
Overall average injected flit rate = 0.600029 (1 samples)
Overall maximum injected flit rate = 0.648 (1 samples)
Overall minimum accepted flit rate = 0.53 (1 samples)
Overall average accepted flit rate = 0.600014 (1 samples)
Overall maximum accepted flit rate = 0.660667 (1 samples)
Overall average injected packet size = 1 (1 samples)
Overall average accepted packet size = 1 (1 samples)
Overall average hops = 3.83395 (1 samples)
Total run time 1618.27
