BEGIN Configuration File: ./DF.conf
injection_rate = 0.25;
traffic = shuffle;
use_size_power_of_two = yes;
routing_function = ugal;
vc_buf_size = 16;
topology = dragonflynew;
//use_noc_latency = 0;
//hold_switch_for_packet=0;

k = 7;
n = 1;

packet_size  = 1;
num_vcs      = 3;
vc_allocator = separable_input_first; 
sw_allocator = separable_input_first;

alloc_iters   = 1;
sample_period = 500;

wait_for_tail_credit = 0;
use_read_write       = 0;

credit_delay   = 2;
routing_delay  = 0;
vc_alloc_delay = 1;
sw_alloc_delay = 1;
st_final_delay = 1;

input_speedup     = 1;
output_speedup    = 1;
internal_speedup  = 2.0;

warmup_periods = 3;
sim_count      = 1;

priority = none;
injection_rate_uses_flits=1;

END Configuration File: ./DF.conf
Number of nodes: 9702
Number of routers: 1386
 Dragonfly 
 p = 7 n = 1
 each switch - total radix =  27
 # of switches = 1386
 # of channels = 27720
 # of nodes ( size of network ) = 9702
 # of groups (_g) = 99
 # of routers per group (_a) = 14
Done links


Power of two: 8192
#################################################################################
0
Class 0:
Minimum packet latency = 5
Average packet latency = 24.6284
Maximum packet latency = 264
Minimum network latency = 5
Average network latency = 24.6284
Maximum network latency = 264
Slowest packet = 481209
Minimum flit latency = 5
Average flit latency = 24.6284
Maximum flit latency = 264
Slowest flit = 481209
Minimum fragmentation = 0
Average fragmentation = 0
Maximum fragmentation = 0
Minimum injected packet rate = 0.182 (at node 1739)
Average injected packet rate = 0.249844
Maximum injected packet rate = 0.332 (at node 4197)
Minimum accepted packet rate = 0.158 (at node 44)
Average accepted packet rate = 0.237286
Maximum accepted packet rate = 0.308 (at node 203)
Minimum injected flit rate = 0.182 (at node 1739)
Average injected flit rate = 0.249844
Maximum injected flit rate = 0.332 (at node 4197)
Minimum accepted flit rate = 0.158 (at node 44)
Average accepted flit rate = 0.237286
Maximum accepted flit rate = 0.308 (at node 203)
Average injected packet length = 1
Average accepted packet length = 1
Total in-flight flits = 51442 (0 measured)
latency change    = 1
throughput change = 1
0
Class 0:
Minimum packet latency = 5
Average packet latency = 24.9125
Maximum packet latency = 378
Minimum network latency = 5
Average network latency = 24.9101
Maximum network latency = 328
Slowest packet = 957748
Minimum flit latency = 5
Average flit latency = 24.9101
Maximum flit latency = 328
Slowest flit = 1324476
Minimum fragmentation = 0
Average fragmentation = 0
Maximum fragmentation = 0
Minimum injected packet rate = 0.203 (at node 5061)
Average injected packet rate = 0.24987
Maximum injected packet rate = 0.302 (at node 1954)
Minimum accepted packet rate = 0.166 (at node 44)
Average accepted packet rate = 0.243542
Maximum accepted packet rate = 0.296 (at node 3908)
Minimum injected flit rate = 0.203 (at node 5061)
Average injected flit rate = 0.24987
Maximum injected flit rate = 0.302 (at node 1954)
Minimum accepted flit rate = 0.166 (at node 44)
Average accepted flit rate = 0.243542
Maximum accepted flit rate = 0.296 (at node 3908)
Average injected packet length = 1
Average accepted packet length = 1
Total in-flight flits = 51854 (0 measured)
latency change    = 0.0114038
throughput change = 0.0256875
0
Class 0:
Minimum packet latency = 5
Average packet latency = 25.692
Maximum packet latency = 552
Minimum network latency = 5
Average network latency = 25.5334
Maximum network latency = 335
Slowest packet = 1379747
Minimum flit latency = 5
Average flit latency = 25.5334
Maximum flit latency = 335
Slowest flit = 1489765
Minimum fragmentation = 0
Average fragmentation = 0
Maximum fragmentation = 0
Minimum injected packet rate = 0.166 (at node 7)
Average injected packet rate = 0.249748
Maximum injected packet rate = 0.332 (at node 4161)
Minimum accepted packet rate = 0.164 (at node 14)
Average accepted packet rate = 0.249518
Maximum accepted packet rate = 0.33 (at node 131)
Minimum injected flit rate = 0.166 (at node 7)
Average injected flit rate = 0.249748
Maximum injected flit rate = 0.332 (at node 4161)
Minimum accepted flit rate = 0.164 (at node 14)
Average accepted flit rate = 0.249518
Maximum accepted flit rate = 0.33 (at node 131)
Average injected packet length = 1
Average accepted packet length = 1
Total in-flight flits = 52804 (0 measured)
latency change    = 0.0303394
throughput change = 0.02395
Warmed up ...Time used is 1500 cycles
1
Class 0:
Minimum packet latency = 5
Average packet latency = 25.4849
Maximum packet latency = 756
Minimum network latency = 5
Average network latency = 25.2388
Maximum network latency = 308
Slowest packet = 3080239
Minimum flit latency = 5
Average flit latency = 25.7362
Maximum flit latency = 319
Slowest flit = 2549626
Minimum fragmentation = 0
Average fragmentation = 0
Maximum fragmentation = 0
Minimum injected packet rate = 0.168 (at node 15)
Average injected packet rate = 0.249419
Maximum injected packet rate = 0.318 (at node 1308)
Minimum accepted packet rate = 0.168 (at node 18)
Average accepted packet rate = 0.24941
Maximum accepted packet rate = 0.318 (at node 2616)
Minimum injected flit rate = 0.168 (at node 15)
Average injected flit rate = 0.249419
Maximum injected flit rate = 0.318 (at node 1308)
Minimum accepted flit rate = 0.168 (at node 18)
Average accepted flit rate = 0.24941
Maximum accepted flit rate = 0.318 (at node 2616)
Average injected packet length = 1
Average accepted packet length = 1
Total in-flight flits = 52844 (52844 measured)
latency change    = 0.00812663
throughput change = 0.000432661
1
Class 0:
Minimum packet latency = 5
Average packet latency = 26.1304
Maximum packet latency = 963
Minimum network latency = 5
Average network latency = 25.5634
Maximum network latency = 317
Slowest packet = 3080239
Minimum flit latency = 5
Average flit latency = 25.8034
Maximum flit latency = 319
Slowest flit = 2549626
Minimum fragmentation = 0
Average fragmentation = 0
Maximum fragmentation = 0
Minimum injected packet rate = 0.168 (at node 8)
Average injected packet rate = 0.24971
Maximum injected packet rate = 0.299 (at node 2064)
Minimum accepted packet rate = 0.168 (at node 16)
Average accepted packet rate = 0.24967
Maximum accepted packet rate = 0.297 (at node 6207)
Minimum injected flit rate = 0.168 (at node 8)
Average injected flit rate = 0.24971
Maximum injected flit rate = 0.299 (at node 2064)
Minimum accepted flit rate = 0.168 (at node 16)
Average accepted flit rate = 0.24967
Maximum accepted flit rate = 0.297 (at node 6207)
Average injected packet length = 1
Average accepted packet length = 1
Total in-flight flits = 53150 (53150 measured)
latency change    = 0.0247031
throughput change = 0.0010419
1
Class 0:
Minimum packet latency = 5
Average packet latency = 26.5294
Maximum packet latency = 1114
Minimum network latency = 5
Average network latency = 25.7062
Maximum network latency = 324
Slowest packet = 3080239
Minimum flit latency = 5
Average flit latency = 25.8637
Maximum flit latency = 324
Slowest flit = 4826905
Minimum fragmentation = 0
Average fragmentation = 0
Maximum fragmentation = 0
Minimum injected packet rate = 0.166667 (at node 10)
Average injected packet rate = 0.249745
Maximum injected packet rate = 0.300667 (at node 2064)
Minimum accepted packet rate = 0.166 (at node 18)
Average accepted packet rate = 0.2497
Maximum accepted packet rate = 0.3 (at node 4128)
Minimum injected flit rate = 0.166667 (at node 10)
Average injected flit rate = 0.249745
Maximum injected flit rate = 0.300667 (at node 2064)
Minimum accepted flit rate = 0.166 (at node 18)
Average accepted flit rate = 0.2497
Maximum accepted flit rate = 0.3 (at node 4128)
Average injected packet length = 1
Average accepted packet length = 1
Total in-flight flits = 53371 (53371 measured)
latency change    = 0.0150412
throughput change = 0.000120424
Draining all recorded packets ...
Class 0:
Remaining flits: 7544268 7550438 7556679 7558723 7564981 7564985 7564986 7567007 7569068 7571147 [...] (53126 flits)
Measured flits: 7544268 7550438 7556679 7558723 7564981 7564985 7564986 7567007 7569068 7571147 [...] (876 flits)
Draining remaining packets ...
Time taken is 4781 cycles
====== Traffic class 0 ======
Overall minimum packet latency = 5 (1 samples)
Overall average packet latency = 28.6277 (1 samples)
Overall maximum packet latency = 1564 (1 samples)
Overall minimum network latency = 5 (1 samples)
Overall average network latency = 26.3114 (1 samples)
Overall maximum network latency = 326 (1 samples)
Overall minimum flit latency = 5 (1 samples)
Overall average flit latency = 26.044 (1 samples)
Overall maximum flit latency = 326 (1 samples)
Overall minimum fragmentation = 0 (1 samples)
Overall average fragmentation = 0 (1 samples)
Overall maximum fragmentation = 0 (1 samples)
Overall minimum injected packet rate = 0.166667 (1 samples)
Overall average injected packet rate = 0.249745 (1 samples)
Overall maximum injected packet rate = 0.300667 (1 samples)
Overall minimum accepted packet rate = 0.166 (1 samples)
Overall average accepted packet rate = 0.2497 (1 samples)
Overall maximum accepted packet rate = 0.3 (1 samples)
Overall minimum injected flit rate = 0.166667 (1 samples)
Overall average injected flit rate = 0.249745 (1 samples)
Overall maximum injected flit rate = 0.300667 (1 samples)
Overall minimum accepted flit rate = 0.166 (1 samples)
Overall average accepted flit rate = 0.2497 (1 samples)
Overall maximum accepted flit rate = 0.3 (1 samples)
Overall average injected packet size = 1 (1 samples)
Overall average accepted packet size = 1 (1 samples)
Overall average hops = 6.60655 (1 samples)
Total run time 1628.6
