BEGIN Configuration File: ./RAND.conf
injection_rate = 0.2;
traffic = uniform;
use_size_power_of_two = no;
routing_function = min;
vc_buf_size = 16;
network_file = RAND.98.11.5.bsconf;
load_routing_file = no;
routing_table_file = RAND.98.11.5.route;
topology = anynet;
use_noc_latency = 0;
//KURWAhold_switch_for_packet=0;

k = 16;

packet_size  = 1;
num_vcs      = 4;
vc_allocator = separable_input_first; 
sw_allocator = separable_input_first;

alloc_iters   = 1;
sample_period = 500;

wait_for_tail_credit = 0;
use_read_write       = 0;

credit_delay   = 2;
routing_delay  = 0;
vc_alloc_delay = 1;
sw_alloc_delay = 1;
st_final_delay = 1;

input_speedup     = 1;
output_speedup    = 1;
internal_speedup  = 2.0;

warmup_periods = 3;
sim_count      = 1;

priority = none;
injection_rate_uses_flits=1;

END Configuration File: ./RAND.conf
========================Network File Parsed=================
******************node listing**********************

****************router to node listing*************

*****************router to router listing************
Number of nodes: 490
Number of routers: 98
==========================Node to Router =====================
==========================Router to Router =====================
========================== Build Routing table  =====================
Start searching...Routing table for router 0 done  |
Start searching...Routing table for router 1 done  |
Start searching...Routing table for router 2 done  |
Start searching...Routing table for router 3 done  |
Start searching...Routing table for router 4 done  |
Start searching...Routing table for router 5 done  |
Start searching...Routing table for router 6 done  |
Start searching...Routing table for router 7 done  |
Start searching...Routing table for router 8 done  |
Start searching...Routing table for router 9 done  |
Start searching...Routing table for router 10 done  |
Start searching...Routing table for router 11 done  |
Start searching...Routing table for router 12 done  |
Start searching...Routing table for router 13 done  |
Start searching...Routing table for router 14 done  |
Start searching...Routing table for router 15 done  |
Start searching...Routing table for router 16 done  |
Start searching...Routing table for router 17 done  |
Start searching...Routing table for router 18 done  |
Start searching...Routing table for router 19 done  |
Start searching...Routing table for router 20 done  |
Start searching...Routing table for router 21 done  |
Start searching...Routing table for router 22 done  |
Start searching...Routing table for router 23 done  |
Start searching...Routing table for router 24 done  |
Start searching...Routing table for router 25 done  |
Start searching...Routing table for router 26 done  |
Start searching...Routing table for router 27 done  |
Start searching...Routing table for router 28 done  |
Start searching...Routing table for router 29 done  |
Start searching...Routing table for router 30 done  |
Start searching...Routing table for router 31 done  |
Start searching...Routing table for router 32 done  |
Start searching...Routing table for router 33 done  |
Start searching...Routing table for router 34 done  |
Start searching...Routing table for router 35 done  |
Start searching...Routing table for router 36 done  |
Start searching...Routing table for router 37 done  |
Start searching...Routing table for router 38 done  |
Start searching...Routing table for router 39 done  |
Start searching...Routing table for router 40 done  |
Start searching...Routing table for router 41 done  |
Start searching...Routing table for router 42 done  |
Start searching...Routing table for router 43 done  |
Start searching...Routing table for router 44 done  |
Start searching...Routing table for router 45 done  |
Start searching...Routing table for router 46 done  |
Start searching...Routing table for router 47 done  |
Start searching...Routing table for router 48 done  |
Start searching...Routing table for router 49 done  |
Start searching...Routing table for router 50 done  |
Start searching...Routing table for router 51 done  |
Start searching...Routing table for router 52 done  |
Start searching...Routing table for router 53 done  |
Start searching...Routing table for router 54 done  |
Start searching...Routing table for router 55 done  |
Start searching...Routing table for router 56 done  |
Start searching...Routing table for router 57 done  |
Start searching...Routing table for router 58 done  |
Start searching...Routing table for router 59 done  |
Start searching...Routing table for router 60 done  |
Start searching...Routing table for router 61 done  |
Start searching...Routing table for router 62 done  |
Start searching...Routing table for router 63 done  |
Start searching...Routing table for router 64 done  |
Start searching...Routing table for router 65 done  |
Start searching...Routing table for router 66 done  |
Start searching...Routing table for router 67 done  |
Start searching...Routing table for router 68 done  |
Start searching...Routing table for router 69 done  |
Start searching...Routing table for router 70 done  |
Start searching...Routing table for router 71 done  |
Start searching...Routing table for router 72 done  |
Start searching...Routing table for router 73 done  |
Start searching...Routing table for router 74 done  |
Start searching...Routing table for router 75 done  |
Start searching...Routing table for router 76 done  |
Start searching...Routing table for router 77 done  |
Start searching...Routing table for router 78 done  |
Start searching...Routing table for router 79 done  |
Start searching...Routing table for router 80 done  |
Start searching...Routing table for router 81 done  |
Start searching...Routing table for router 82 done  |
Start searching...Routing table for router 83 done  |
Start searching...Routing table for router 84 done  |
Start searching...Routing table for router 85 done  |
Start searching...Routing table for router 86 done  |
Start searching...Routing table for router 87 done  |
Start searching...Routing table for router 88 done  |
Start searching...Routing table for router 89 done  |
Start searching...Routing table for router 90 done  |
Start searching...Routing table for router 91 done  |
Start searching...Routing table for router 92 done  |
Start searching...Routing table for router 93 done  |
Start searching...Routing table for router 94 done  |
Start searching...Routing table for router 95 done  |
Start searching...Routing table for router 96 done  |
Start searching...Routing table for router 97 done  |

========================== Build Routing table done  =====================

Saving routing table...
========================== Building Bad traffic pattern, type 2... ============================
=================== Finished building bad traffic pattern... ====================
Sum of nodes sending: 490
Sum of nodes: 490
0
Class 0:
Minimum packet latency = 5
Average packet latency = 11.9852
Maximum packet latency = 28
Minimum network latency = 5
Average network latency = 11.9852
Maximum network latency = 28
Slowest packet = 44366
Minimum flit latency = 5
Average flit latency = 11.9852
Maximum flit latency = 28
Slowest flit = 44366
Minimum fragmentation = 0
Average fragmentation = 0
Maximum fragmentation = 0
Minimum injected packet rate = 0.152 (at node 6)
Average injected packet rate = 0.199004
Maximum injected packet rate = 0.262 (at node 52)
Minimum accepted packet rate = 0.144 (at node 219)
Average accepted packet rate = 0.194327
Maximum accepted packet rate = 0.272 (at node 296)
Minimum injected flit rate = 0.152 (at node 6)
Average injected flit rate = 0.199004
Maximum injected flit rate = 0.262 (at node 52)
Minimum accepted flit rate = 0.144 (at node 219)
Average accepted flit rate = 0.194327
Maximum accepted flit rate = 0.272 (at node 296)
Average injected packet length = 1
Average accepted packet length = 1
Total in-flight flits = 1146 (0 measured)
latency change    = 1
throughput change = 1
0
Class 0:
Minimum packet latency = 5
Average packet latency = 11.9824
Maximum packet latency = 29
Minimum network latency = 5
Average network latency = 11.9824
Maximum network latency = 29
Slowest packet = 47256
Minimum flit latency = 5
Average flit latency = 11.9824
Maximum flit latency = 29
Slowest flit = 47256
Minimum fragmentation = 0
Average fragmentation = 0
Maximum fragmentation = 0
Minimum injected packet rate = 0.166 (at node 172)
Average injected packet rate = 0.199322
Maximum injected packet rate = 0.238 (at node 338)
Minimum accepted packet rate = 0.149 (at node 338)
Average accepted packet rate = 0.19682
Maximum accepted packet rate = 0.239 (at node 333)
Minimum injected flit rate = 0.166 (at node 172)
Average injected flit rate = 0.199322
Maximum injected flit rate = 0.238 (at node 338)
Minimum accepted flit rate = 0.149 (at node 338)
Average accepted flit rate = 0.19682
Maximum accepted flit rate = 0.239 (at node 333)
Average injected packet length = 1
Average accepted packet length = 1
Total in-flight flits = 1226 (0 measured)
latency change    = 0.000232718
throughput change = 0.0126708
0
Class 0:
Minimum packet latency = 5
Average packet latency = 12.0154
Maximum packet latency = 26
Minimum network latency = 5
Average network latency = 12.0154
Maximum network latency = 26
Slowest packet = 139112
Minimum flit latency = 5
Average flit latency = 12.0154
Maximum flit latency = 26
Slowest flit = 139112
Minimum fragmentation = 0
Average fragmentation = 0
Maximum fragmentation = 0
Minimum injected packet rate = 0.156 (at node 291)
Average injected packet rate = 0.200233
Maximum injected packet rate = 0.262 (at node 139)
Minimum accepted packet rate = 0.142 (at node 270)
Average accepted packet rate = 0.200478
Maximum accepted packet rate = 0.27 (at node 124)
Minimum injected flit rate = 0.156 (at node 291)
Average injected flit rate = 0.200233
Maximum injected flit rate = 0.262 (at node 139)
Minimum accepted flit rate = 0.142 (at node 270)
Average accepted flit rate = 0.200478
Maximum accepted flit rate = 0.27 (at node 124)
Average injected packet length = 1
Average accepted packet length = 1
Total in-flight flits = 1166 (0 measured)
latency change    = 0.00274036
throughput change = 0.0182422
Warmed up ...Time used is 1500 cycles
1
Class 0:
Minimum packet latency = 5
Average packet latency = 11.996
Maximum packet latency = 28
Minimum network latency = 5
Average network latency = 11.996
Maximum network latency = 28
Slowest packet = 181966
Minimum flit latency = 5
Average flit latency = 12.0054
Maximum flit latency = 28
Slowest flit = 181966
Minimum fragmentation = 0
Average fragmentation = 0
Maximum fragmentation = 0
Minimum injected packet rate = 0.148 (at node 254)
Average injected packet rate = 0.199445
Maximum injected packet rate = 0.25 (at node 261)
Minimum accepted packet rate = 0.132 (at node 99)
Average accepted packet rate = 0.199392
Maximum accepted packet rate = 0.254 (at node 318)
Minimum injected flit rate = 0.148 (at node 254)
Average injected flit rate = 0.199445
Maximum injected flit rate = 0.25 (at node 261)
Minimum accepted flit rate = 0.132 (at node 99)
Average accepted flit rate = 0.199392
Maximum accepted flit rate = 0.254 (at node 318)
Average injected packet length = 1
Average accepted packet length = 1
Total in-flight flits = 1179 (1179 measured)
latency change    = 0.00161358
throughput change = 0.00544513
1
Class 0:
Minimum packet latency = 5
Average packet latency = 11.9901
Maximum packet latency = 28
Minimum network latency = 5
Average network latency = 11.9901
Maximum network latency = 28
Slowest packet = 181966
Minimum flit latency = 5
Average flit latency = 11.9948
Maximum flit latency = 28
Slowest flit = 181966
Minimum fragmentation = 0
Average fragmentation = 0
Maximum fragmentation = 0
Minimum injected packet rate = 0.164 (at node 254)
Average injected packet rate = 0.199831
Maximum injected packet rate = 0.236 (at node 342)
Minimum accepted packet rate = 0.158 (at node 59)
Average accepted packet rate = 0.199831
Maximum accepted packet rate = 0.242 (at node 58)
Minimum injected flit rate = 0.164 (at node 254)
Average injected flit rate = 0.199831
Maximum injected flit rate = 0.236 (at node 342)
Minimum accepted flit rate = 0.158 (at node 59)
Average accepted flit rate = 0.199831
Maximum accepted flit rate = 0.242 (at node 58)
Average injected packet length = 1
Average accepted packet length = 1
Total in-flight flits = 1166 (1166 measured)
latency change    = 0.00049521
throughput change = 0.00219574
1
Class 0:
Minimum packet latency = 5
Average packet latency = 11.9866
Maximum packet latency = 28
Minimum network latency = 5
Average network latency = 11.9866
Maximum network latency = 28
Slowest packet = 181966
Minimum flit latency = 5
Average flit latency = 11.9898
Maximum flit latency = 28
Slowest flit = 181966
Minimum fragmentation = 0
Average fragmentation = 0
Maximum fragmentation = 0
Minimum injected packet rate = 0.167333 (at node 244)
Average injected packet rate = 0.200052
Maximum injected packet rate = 0.228667 (at node 67)
Minimum accepted packet rate = 0.168667 (at node 403)
Average accepted packet rate = 0.200031
Maximum accepted packet rate = 0.233333 (at node 472)
Minimum injected flit rate = 0.167333 (at node 244)
Average injected flit rate = 0.200052
Maximum injected flit rate = 0.228667 (at node 67)
Minimum accepted flit rate = 0.168667 (at node 403)
Average accepted flit rate = 0.200031
Maximum accepted flit rate = 0.233333 (at node 472)
Average injected packet length = 1
Average accepted packet length = 1
Total in-flight flits = 1181 (1181 measured)
latency change    = 0.000288124
throughput change = 0.00100324
Draining all recorded packets ...
Draining remaining packets ...
Time taken is 3045 cycles
====== Traffic class 0 ======
Overall minimum packet latency = 5 (1 samples)
Overall average packet latency = 11.9915 (1 samples)
Overall maximum packet latency = 28 (1 samples)
Overall minimum network latency = 5 (1 samples)
Overall average network latency = 11.9915 (1 samples)
Overall maximum network latency = 28 (1 samples)
Overall minimum flit latency = 5 (1 samples)
Overall average flit latency = 11.9944 (1 samples)
Overall maximum flit latency = 28 (1 samples)
Overall minimum fragmentation = 0 (1 samples)
Overall average fragmentation = 0 (1 samples)
Overall maximum fragmentation = 0 (1 samples)
Overall minimum injected packet rate = 0.167333 (1 samples)
Overall average injected packet rate = 0.200052 (1 samples)
Overall maximum injected packet rate = 0.228667 (1 samples)
Overall minimum accepted packet rate = 0.168667 (1 samples)
Overall average accepted packet rate = 0.200031 (1 samples)
Overall maximum accepted packet rate = 0.233333 (1 samples)
Overall minimum injected flit rate = 0.167333 (1 samples)
Overall average injected flit rate = 0.200052 (1 samples)
Overall maximum injected flit rate = 0.228667 (1 samples)
Overall minimum accepted flit rate = 0.168667 (1 samples)
Overall average accepted flit rate = 0.200031 (1 samples)
Overall maximum accepted flit rate = 0.233333 (1 samples)
Overall average injected packet size = 1 (1 samples)
Overall average accepted packet size = 1 (1 samples)
Overall average hops = 3.15115 (1 samples)
Total run time 35.0609
