BEGIN Configuration File: ./DF.conf
injection_rate = 0.3;
traffic = bad_dragon;
use_size_power_of_two = no;
routing_function = ugal;
vc_buf_size = 16;
topology = dragonflynew;
//use_noc_latency = 0;
//hold_switch_for_packet=0;

k = 7;
n = 1;

packet_size  = 1;
num_vcs      = 3;
vc_allocator = separable_input_first; 
sw_allocator = separable_input_first;

alloc_iters   = 1;
sample_period = 500;

wait_for_tail_credit = 0;
use_read_write       = 0;

credit_delay   = 2;
routing_delay  = 0;
vc_alloc_delay = 1;
sw_alloc_delay = 1;
st_final_delay = 1;

input_speedup     = 1;
output_speedup    = 1;
internal_speedup  = 2.0;

warmup_periods = 3;
sim_count      = 1;

priority = none;
injection_rate_uses_flits=1;

END Configuration File: ./DF.conf
Number of nodes: 9702
Number of routers: 1386
 Dragonfly 
 p = 7 n = 1
 each switch - total radix =  27
 # of switches = 1386
 # of channels = 27720
 # of nodes ( size of network ) = 9702
 # of groups (_g) = 99
 # of routers per group (_a) = 14
Done links
0
Class 0:
Minimum packet latency = 8
Average packet latency = 26.4146
Maximum packet latency = 54
Minimum network latency = 8
Average network latency = 26.4146
Maximum network latency = 54
Slowest packet = 1048341
Minimum flit latency = 8
Average flit latency = 26.4146
Maximum flit latency = 54
Slowest flit = 1048341
Minimum fragmentation = 0
Average fragmentation = 0
Maximum fragmentation = 0
Minimum injected packet rate = 0.228 (at node 794)
Average injected packet rate = 0.299734
Maximum injected packet rate = 0.37 (at node 7710)
Minimum accepted packet rate = 0.202 (at node 1069)
Average accepted packet rate = 0.283857
Maximum accepted packet rate = 0.396 (at node 3388)
Minimum injected flit rate = 0.228 (at node 794)
Average injected flit rate = 0.299734
Maximum injected flit rate = 0.37 (at node 7710)
Minimum accepted flit rate = 0.202 (at node 1069)
Average accepted flit rate = 0.283857
Maximum accepted flit rate = 0.396 (at node 3388)
Average injected packet length = 1
Average accepted packet length = 1
Total in-flight flits = 77018 (0 measured)
latency change    = 1
throughput change = 1
0
Class 0:
Minimum packet latency = 8
Average packet latency = 26.4757
Maximum packet latency = 66
Minimum network latency = 8
Average network latency = 26.4757
Maximum network latency = 66
Slowest packet = 1638036
Minimum flit latency = 8
Average flit latency = 26.4757
Maximum flit latency = 66
Slowest flit = 1638036
Minimum fragmentation = 0
Average fragmentation = 0
Maximum fragmentation = 0
Minimum injected packet rate = 0.251 (at node 5233)
Average injected packet rate = 0.299883
Maximum injected packet rate = 0.363 (at node 6426)
Minimum accepted packet rate = 0.224 (at node 5521)
Average accepted packet rate = 0.291946
Maximum accepted packet rate = 0.358 (at node 6922)
Minimum injected flit rate = 0.251 (at node 5233)
Average injected flit rate = 0.299883
Maximum injected flit rate = 0.363 (at node 6426)
Minimum accepted flit rate = 0.224 (at node 5521)
Average accepted flit rate = 0.291946
Maximum accepted flit rate = 0.358 (at node 6922)
Average injected packet length = 1
Average accepted packet length = 1
Total in-flight flits = 77006 (0 measured)
latency change    = 0.0023095
throughput change = 0.0277084
0
Class 0:
Minimum packet latency = 8
Average packet latency = 26.5324
Maximum packet latency = 54
Minimum network latency = 8
Average network latency = 26.5324
Maximum network latency = 54
Slowest packet = 2768447
Minimum flit latency = 8
Average flit latency = 26.5324
Maximum flit latency = 54
Slowest flit = 2768447
Minimum fragmentation = 0
Average fragmentation = 0
Maximum fragmentation = 0
Minimum injected packet rate = 0.228 (at node 1600)
Average injected packet rate = 0.30003
Maximum injected packet rate = 0.378 (at node 3735)
Minimum accepted packet rate = 0.206 (at node 7402)
Average accepted packet rate = 0.300001
Maximum accepted packet rate = 0.4 (at node 1294)
Minimum injected flit rate = 0.228 (at node 1600)
Average injected flit rate = 0.30003
Maximum injected flit rate = 0.378 (at node 3735)
Minimum accepted flit rate = 0.206 (at node 7402)
Average accepted flit rate = 0.300001
Maximum accepted flit rate = 0.4 (at node 1294)
Average injected packet length = 1
Average accepted packet length = 1
Total in-flight flits = 77148 (0 measured)
latency change    = 0.00213648
throughput change = 0.0268483
Warmed up ...Time used is 1500 cycles
1
Class 0:
Minimum packet latency = 8
Average packet latency = 26.497
Maximum packet latency = 53
Minimum network latency = 8
Average network latency = 26.497
Maximum network latency = 53
Slowest packet = 5447647
Minimum flit latency = 8
Average flit latency = 26.5314
Maximum flit latency = 53
Slowest flit = 5447647
Minimum fragmentation = 0
Average fragmentation = 0
Maximum fragmentation = 0
Minimum injected packet rate = 0.2 (at node 7638)
Average injected packet rate = 0.299976
Maximum injected packet rate = 0.372 (at node 525)
Minimum accepted packet rate = 0.214 (at node 4118)
Average accepted packet rate = 0.3
Maximum accepted packet rate = 0.388 (at node 724)
Minimum injected flit rate = 0.2 (at node 7638)
Average injected flit rate = 0.299976
Maximum injected flit rate = 0.372 (at node 525)
Minimum accepted flit rate = 0.214 (at node 4118)
Average accepted flit rate = 0.3
Maximum accepted flit rate = 0.388 (at node 724)
Average injected packet length = 1
Average accepted packet length = 1
Total in-flight flits = 77036 (77036 measured)
latency change    = 0.00133688
throughput change = 4.12287e-06
1
Class 0:
Minimum packet latency = 8
Average packet latency = 26.5129
Maximum packet latency = 54
Minimum network latency = 8
Average network latency = 26.5129
Maximum network latency = 54
Slowest packet = 6612301
Minimum flit latency = 8
Average flit latency = 26.5297
Maximum flit latency = 54
Slowest flit = 6612301
Minimum fragmentation = 0
Average fragmentation = 0
Maximum fragmentation = 0
Minimum injected packet rate = 0.249 (at node 9330)
Average injected packet rate = 0.300055
Maximum injected packet rate = 0.352 (at node 5242)
Minimum accepted packet rate = 0.238 (at node 1152)
Average accepted packet rate = 0.300029
Maximum accepted packet rate = 0.367 (at node 1288)
Minimum injected flit rate = 0.249 (at node 9330)
Average injected flit rate = 0.300055
Maximum injected flit rate = 0.352 (at node 5242)
Minimum accepted flit rate = 0.238 (at node 1152)
Average accepted flit rate = 0.300029
Maximum accepted flit rate = 0.367 (at node 1288)
Average injected packet length = 1
Average accepted packet length = 1
Total in-flight flits = 77401 (77401 measured)
latency change    = 0.000600974
throughput change = 9.8252e-05
1
Class 0:
Minimum packet latency = 8
Average packet latency = 26.5248
Maximum packet latency = 56
Minimum network latency = 8
Average network latency = 26.5248
Maximum network latency = 56
Slowest packet = 8531761
Minimum flit latency = 8
Average flit latency = 26.5358
Maximum flit latency = 56
Slowest flit = 8531761
Minimum fragmentation = 0
Average fragmentation = 0
Maximum fragmentation = 0
Minimum injected packet rate = 0.253333 (at node 9330)
Average injected packet rate = 0.300073
Maximum injected packet rate = 0.348667 (at node 1920)
Minimum accepted packet rate = 0.252 (at node 6343)
Average accepted packet rate = 0.300031
Maximum accepted packet rate = 0.350667 (at node 7505)
Minimum injected flit rate = 0.253333 (at node 9330)
Average injected flit rate = 0.300073
Maximum injected flit rate = 0.348667 (at node 1920)
Minimum accepted flit rate = 0.252 (at node 6343)
Average accepted flit rate = 0.300031
Maximum accepted flit rate = 0.350667 (at node 7505)
Average injected packet length = 1
Average accepted packet length = 1
Total in-flight flits = 77758 (77758 measured)
latency change    = 0.000449461
throughput change = 5.72561e-06
Draining all recorded packets ...
Draining remaining packets ...
Time taken is 3090 cycles
====== Traffic class 0 ======
Overall minimum packet latency = 8 (1 samples)
Overall average packet latency = 26.5368 (1 samples)
Overall maximum packet latency = 56 (1 samples)
Overall minimum network latency = 8 (1 samples)
Overall average network latency = 26.5368 (1 samples)
Overall maximum network latency = 56 (1 samples)
Overall minimum flit latency = 8 (1 samples)
Overall average flit latency = 26.5362 (1 samples)
Overall maximum flit latency = 56 (1 samples)
Overall minimum fragmentation = 0 (1 samples)
Overall average fragmentation = 0 (1 samples)
Overall maximum fragmentation = 0 (1 samples)
Overall minimum injected packet rate = 0.253333 (1 samples)
Overall average injected packet rate = 0.300073 (1 samples)
Overall maximum injected packet rate = 0.348667 (1 samples)
Overall minimum accepted packet rate = 0.252 (1 samples)
Overall average accepted packet rate = 0.300031 (1 samples)
Overall maximum accepted packet rate = 0.350667 (1 samples)
Overall minimum injected flit rate = 0.253333 (1 samples)
Overall average injected flit rate = 0.300073 (1 samples)
Overall maximum injected flit rate = 0.348667 (1 samples)
Overall minimum accepted flit rate = 0.252 (1 samples)
Overall average accepted flit rate = 0.300031 (1 samples)
Overall maximum accepted flit rate = 0.350667 (1 samples)
Overall average injected packet size = 1 (1 samples)
Overall average accepted packet size = 1 (1 samples)
Overall average hops = 6.6657 (1 samples)
Total run time 1352.42
