BEGIN Configuration File: ./DF.conf
injection_rate = 0.2;
traffic = bad_dragon;
use_size_power_of_two = no;
routing_function = ugal;
vc_buf_size = 16;
topology = dragonflynew;
//use_noc_latency = 0;
//hold_switch_for_packet=0;

k = 7;
n = 1;

packet_size  = 1;
num_vcs      = 3;
vc_allocator = separable_input_first; 
sw_allocator = separable_input_first;

alloc_iters   = 1;
sample_period = 500;

wait_for_tail_credit = 0;
use_read_write       = 0;

credit_delay   = 2;
routing_delay  = 0;
vc_alloc_delay = 1;
sw_alloc_delay = 1;
st_final_delay = 1;

input_speedup     = 1;
output_speedup    = 1;
internal_speedup  = 2.0;

warmup_periods = 3;
sim_count      = 1;

priority = none;
injection_rate_uses_flits=1;

END Configuration File: ./DF.conf
Number of nodes: 9702
Number of routers: 1386
 Dragonfly 
 p = 7 n = 1
 each switch - total radix =  27
 # of switches = 1386
 # of channels = 27720
 # of nodes ( size of network ) = 9702
 # of groups (_g) = 99
 # of routers per group (_a) = 14
Done links
0
Class 0:
Minimum packet latency = 8
Average packet latency = 23.921
Maximum packet latency = 39
Minimum network latency = 8
Average network latency = 23.921
Maximum network latency = 39
Slowest packet = 150515
Minimum flit latency = 8
Average flit latency = 23.921
Maximum flit latency = 39
Slowest flit = 150515
Minimum fragmentation = 0
Average fragmentation = 0
Maximum fragmentation = 0
Minimum injected packet rate = 0.142 (at node 1058)
Average injected packet rate = 0.199833
Maximum injected packet rate = 0.27 (at node 7298)
Minimum accepted packet rate = 0.124 (at node 9205)
Average accepted packet rate = 0.190228
Maximum accepted packet rate = 0.276 (at node 128)
Minimum injected flit rate = 0.142 (at node 1058)
Average injected flit rate = 0.199833
Maximum injected flit rate = 0.27 (at node 7298)
Minimum accepted flit rate = 0.124 (at node 9205)
Average accepted flit rate = 0.190228
Maximum accepted flit rate = 0.276 (at node 128)
Average injected packet length = 1
Average accepted packet length = 1
Total in-flight flits = 46595 (0 measured)
latency change    = 1
throughput change = 1
0
Class 0:
Minimum packet latency = 8
Average packet latency = 23.9434
Maximum packet latency = 40
Minimum network latency = 8
Average network latency = 23.9434
Maximum network latency = 40
Slowest packet = 1005622
Minimum flit latency = 8
Average flit latency = 23.9434
Maximum flit latency = 40
Slowest flit = 1005622
Minimum fragmentation = 0
Average fragmentation = 0
Maximum fragmentation = 0
Minimum injected packet rate = 0.151 (at node 4950)
Average injected packet rate = 0.200009
Maximum injected packet rate = 0.253 (at node 2102)
Minimum accepted packet rate = 0.144 (at node 7614)
Average accepted packet rate = 0.195219
Maximum accepted packet rate = 0.251 (at node 4889)
Minimum injected flit rate = 0.151 (at node 4950)
Average injected flit rate = 0.200009
Maximum injected flit rate = 0.253 (at node 2102)
Minimum accepted flit rate = 0.144 (at node 7614)
Average accepted flit rate = 0.195219
Maximum accepted flit rate = 0.251 (at node 4889)
Average injected packet length = 1
Average accepted packet length = 1
Total in-flight flits = 46475 (0 measured)
latency change    = 0.000933819
throughput change = 0.0255679
0
Class 0:
Minimum packet latency = 8
Average packet latency = 23.9678
Maximum packet latency = 43
Minimum network latency = 8
Average network latency = 23.9678
Maximum network latency = 43
Slowest packet = 2815444
Minimum flit latency = 8
Average flit latency = 23.9678
Maximum flit latency = 43
Slowest flit = 2815444
Minimum fragmentation = 0
Average fragmentation = 0
Maximum fragmentation = 0
Minimum injected packet rate = 0.13 (at node 9138)
Average injected packet rate = 0.199953
Maximum injected packet rate = 0.264 (at node 3735)
Minimum accepted packet rate = 0.124 (at node 8180)
Average accepted packet rate = 0.19993
Maximum accepted packet rate = 0.28 (at node 7234)
Minimum injected flit rate = 0.13 (at node 9138)
Average injected flit rate = 0.199953
Maximum injected flit rate = 0.264 (at node 3735)
Minimum accepted flit rate = 0.124 (at node 8180)
Average accepted flit rate = 0.19993
Maximum accepted flit rate = 0.28 (at node 7234)
Average injected packet length = 1
Average accepted packet length = 1
Total in-flight flits = 46588 (0 measured)
latency change    = 0.00101911
throughput change = 0.0235632
Warmed up ...Time used is 1500 cycles
1
Class 0:
Minimum packet latency = 8
Average packet latency = 23.9401
Maximum packet latency = 43
Minimum network latency = 8
Average network latency = 23.9401
Maximum network latency = 43
Slowest packet = 3219343
Minimum flit latency = 8
Average flit latency = 23.9595
Maximum flit latency = 43
Slowest flit = 3219343
Minimum fragmentation = 0
Average fragmentation = 0
Maximum fragmentation = 0
Minimum injected packet rate = 0.128 (at node 1089)
Average injected packet rate = 0.200143
Maximum injected packet rate = 0.27 (at node 8316)
Minimum accepted packet rate = 0.132 (at node 3793)
Average accepted packet rate = 0.200202
Maximum accepted packet rate = 0.28 (at node 5947)
Minimum injected flit rate = 0.128 (at node 1089)
Average injected flit rate = 0.200143
Maximum injected flit rate = 0.27 (at node 8316)
Minimum accepted flit rate = 0.132 (at node 3793)
Average accepted flit rate = 0.200202
Maximum accepted flit rate = 0.28 (at node 5947)
Average injected packet length = 1
Average accepted packet length = 1
Total in-flight flits = 46304 (46304 measured)
latency change    = 0.00115829
throughput change = 0.00135814
1
Class 0:
Minimum packet latency = 8
Average packet latency = 23.9512
Maximum packet latency = 43
Minimum network latency = 8
Average network latency = 23.9512
Maximum network latency = 43
Slowest packet = 3219343
Minimum flit latency = 8
Average flit latency = 23.9606
Maximum flit latency = 43
Slowest flit = 3219343
Minimum fragmentation = 0
Average fragmentation = 0
Maximum fragmentation = 0
Minimum injected packet rate = 0.152 (at node 6064)
Average injected packet rate = 0.200176
Maximum injected packet rate = 0.249 (at node 9491)
Minimum accepted packet rate = 0.151 (at node 4623)
Average accepted packet rate = 0.200186
Maximum accepted packet rate = 0.256 (at node 1079)
Minimum injected flit rate = 0.152 (at node 6064)
Average injected flit rate = 0.200176
Maximum injected flit rate = 0.249 (at node 9491)
Minimum accepted flit rate = 0.151 (at node 4623)
Average accepted flit rate = 0.200186
Maximum accepted flit rate = 0.256 (at node 1079)
Average injected packet length = 1
Average accepted packet length = 1
Total in-flight flits = 46498 (46498 measured)
latency change    = 0.000463933
throughput change = 8.03212e-05
1
Class 0:
Minimum packet latency = 8
Average packet latency = 23.955
Maximum packet latency = 43
Minimum network latency = 8
Average network latency = 23.955
Maximum network latency = 43
Slowest packet = 3219343
Minimum flit latency = 8
Average flit latency = 23.9613
Maximum flit latency = 43
Slowest flit = 3219343
Minimum fragmentation = 0
Average fragmentation = 0
Maximum fragmentation = 0
Minimum injected packet rate = 0.164 (at node 5077)
Average injected packet rate = 0.200136
Maximum injected packet rate = 0.242 (at node 1920)
Minimum accepted packet rate = 0.156 (at node 8578)
Average accepted packet rate = 0.200124
Maximum accepted packet rate = 0.249333 (at node 3847)
Minimum injected flit rate = 0.164 (at node 5077)
Average injected flit rate = 0.200136
Maximum injected flit rate = 0.242 (at node 1920)
Minimum accepted flit rate = 0.156 (at node 8578)
Average accepted flit rate = 0.200124
Maximum accepted flit rate = 0.249333 (at node 3847)
Average injected packet length = 1
Average accepted packet length = 1
Total in-flight flits = 46757 (46757 measured)
latency change    = 0.000160697
throughput change = 0.000306962
Draining all recorded packets ...
Draining remaining packets ...
Time taken is 3068 cycles
====== Traffic class 0 ======
Overall minimum packet latency = 8 (1 samples)
Overall average packet latency = 23.9609 (1 samples)
Overall maximum packet latency = 43 (1 samples)
Overall minimum network latency = 8 (1 samples)
Overall average network latency = 23.9609 (1 samples)
Overall maximum network latency = 43 (1 samples)
Overall minimum flit latency = 8 (1 samples)
Overall average flit latency = 23.9629 (1 samples)
Overall maximum flit latency = 43 (1 samples)
Overall minimum fragmentation = 0 (1 samples)
Overall average fragmentation = 0 (1 samples)
Overall maximum fragmentation = 0 (1 samples)
Overall minimum injected packet rate = 0.164 (1 samples)
Overall average injected packet rate = 0.200136 (1 samples)
Overall maximum injected packet rate = 0.242 (1 samples)
Overall minimum accepted packet rate = 0.156 (1 samples)
Overall average accepted packet rate = 0.200124 (1 samples)
Overall maximum accepted packet rate = 0.249333 (1 samples)
Overall minimum injected flit rate = 0.164 (1 samples)
Overall average injected flit rate = 0.200136 (1 samples)
Overall maximum injected flit rate = 0.242 (1 samples)
Overall minimum accepted flit rate = 0.156 (1 samples)
Overall average accepted flit rate = 0.200124 (1 samples)
Overall maximum accepted flit rate = 0.249333 (1 samples)
Overall average injected packet size = 1 (1 samples)
Overall average accepted packet size = 1 (1 samples)
Overall average hops = 6.66598 (1 samples)
Total run time 944.462
