BEGIN Configuration File: ./DF.conf
injection_rate = 0.4;
traffic = bad_dragon;
use_size_power_of_two = no;
routing_function = ugal;
vc_buf_size = 16;
topology = dragonflynew;
//use_noc_latency = 0;
//hold_switch_for_packet=0;

k = 7;
n = 1;

packet_size  = 1;
num_vcs      = 3;
vc_allocator = separable_input_first; 
sw_allocator = separable_input_first;

alloc_iters   = 1;
sample_period = 500;

wait_for_tail_credit = 0;
use_read_write       = 0;

credit_delay   = 2;
routing_delay  = 0;
vc_alloc_delay = 1;
sw_alloc_delay = 1;
st_final_delay = 1;

input_speedup     = 1;
output_speedup    = 1;
internal_speedup  = 2.0;

warmup_periods = 3;
sim_count      = 1;

priority = none;
injection_rate_uses_flits=1;

END Configuration File: ./DF.conf
Number of nodes: 9702
Number of routers: 1386
 Dragonfly 
 p = 7 n = 1
 each switch - total radix =  27
 # of switches = 1386
 # of channels = 27720
 # of nodes ( size of network ) = 9702
 # of groups (_g) = 99
 # of routers per group (_a) = 14
Done links
0
Class 0:
Minimum packet latency = 8
Average packet latency = 33.1509
Maximum packet latency = 90
Minimum network latency = 8
Average network latency = 33.1509
Maximum network latency = 90
Slowest packet = 703397
Minimum flit latency = 8
Average flit latency = 33.1509
Maximum flit latency = 90
Slowest flit = 703397
Minimum fragmentation = 0
Average fragmentation = 0
Maximum fragmentation = 0
Minimum injected packet rate = 0.32 (at node 3998)
Average injected packet rate = 0.399692
Maximum injected packet rate = 0.484 (at node 8665)
Minimum accepted packet rate = 0.282 (at node 4215)
Average accepted packet rate = 0.372499
Maximum accepted packet rate = 0.476 (at node 3515)
Minimum injected flit rate = 0.32 (at node 3998)
Average injected flit rate = 0.399692
Maximum injected flit rate = 0.484 (at node 8665)
Minimum accepted flit rate = 0.282 (at node 4215)
Average accepted flit rate = 0.372499
Maximum accepted flit rate = 0.476 (at node 3515)
Average injected packet length = 1
Average accepted packet length = 1
Total in-flight flits = 131911 (0 measured)
latency change    = 1
throughput change = 1
0
Class 0:
Minimum packet latency = 8
Average packet latency = 33.6163
Maximum packet latency = 90
Minimum network latency = 8
Average network latency = 33.6163
Maximum network latency = 90
Slowest packet = 703397
Minimum flit latency = 8
Average flit latency = 33.6163
Maximum flit latency = 90
Slowest flit = 703397
Minimum fragmentation = 0
Average fragmentation = 0
Maximum fragmentation = 0
Minimum injected packet rate = 0.34 (at node 5233)
Average injected packet rate = 0.399836
Maximum injected packet rate = 0.455 (at node 7006)
Minimum accepted packet rate = 0.304 (at node 4583)
Average accepted packet rate = 0.386238
Maximum accepted packet rate = 0.461 (at node 4394)
Minimum injected flit rate = 0.34 (at node 5233)
Average injected flit rate = 0.399836
Maximum injected flit rate = 0.455 (at node 7006)
Minimum accepted flit rate = 0.304 (at node 4583)
Average accepted flit rate = 0.386238
Maximum accepted flit rate = 0.461 (at node 4394)
Average injected packet length = 1
Average accepted packet length = 1
Total in-flight flits = 131930 (0 measured)
latency change    = 0.0138432
throughput change = 0.035569
0
Class 0:
Minimum packet latency = 8
Average packet latency = 34.0133
Maximum packet latency = 100
Minimum network latency = 8
Average network latency = 34.0133
Maximum network latency = 100
Slowest packet = 4180678
Minimum flit latency = 8
Average flit latency = 34.0133
Maximum flit latency = 100
Slowest flit = 4180678
Minimum fragmentation = 0
Average fragmentation = 0
Maximum fragmentation = 0
Minimum injected packet rate = 0.322 (at node 1144)
Average injected packet rate = 0.399759
Maximum injected packet rate = 0.478 (at node 490)
Minimum accepted packet rate = 0.292 (at node 3207)
Average accepted packet rate = 0.399824
Maximum accepted packet rate = 0.514 (at node 9023)
Minimum injected flit rate = 0.322 (at node 1144)
Average injected flit rate = 0.399759
Maximum injected flit rate = 0.478 (at node 490)
Minimum accepted flit rate = 0.292 (at node 3207)
Average accepted flit rate = 0.399824
Maximum accepted flit rate = 0.514 (at node 9023)
Average injected packet length = 1
Average accepted packet length = 1
Total in-flight flits = 131614 (0 measured)
latency change    = 0.0116712
throughput change = 0.0339804
Warmed up ...Time used is 1500 cycles
1
Class 0:
Minimum packet latency = 8
Average packet latency = 33.9127
Maximum packet latency = 89
Minimum network latency = 8
Average network latency = 33.9127
Maximum network latency = 89
Slowest packet = 6290620
Minimum flit latency = 8
Average flit latency = 34.0118
Maximum flit latency = 89
Slowest flit = 6290620
Minimum fragmentation = 0
Average fragmentation = 0
Maximum fragmentation = 0
Minimum injected packet rate = 0.3 (at node 7638)
Average injected packet rate = 0.399934
Maximum injected packet rate = 0.48 (at node 3049)
Minimum accepted packet rate = 0.304 (at node 4734)
Average accepted packet rate = 0.399836
Maximum accepted packet rate = 0.518 (at node 7837)
Minimum injected flit rate = 0.3 (at node 7638)
Average injected flit rate = 0.399934
Maximum injected flit rate = 0.48 (at node 3049)
Minimum accepted flit rate = 0.304 (at node 4734)
Average accepted flit rate = 0.399836
Maximum accepted flit rate = 0.518 (at node 7837)
Average injected packet length = 1
Average accepted packet length = 1
Total in-flight flits = 132086 (132086 measured)
latency change    = 0.00296377
throughput change = 3.14497e-05
1
Class 0:
Minimum packet latency = 8
Average packet latency = 33.9831
Maximum packet latency = 91
Minimum network latency = 8
Average network latency = 33.9831
Maximum network latency = 91
Slowest packet = 8698882
Minimum flit latency = 8
Average flit latency = 34.0302
Maximum flit latency = 91
Slowest flit = 8698882
Minimum fragmentation = 0
Average fragmentation = 0
Maximum fragmentation = 0
Minimum injected packet rate = 0.347 (at node 5895)
Average injected packet rate = 0.400036
Maximum injected packet rate = 0.457 (at node 1519)
Minimum accepted packet rate = 0.318 (at node 1202)
Average accepted packet rate = 0.399974
Maximum accepted packet rate = 0.474 (at node 3271)
Minimum injected flit rate = 0.347 (at node 5895)
Average injected flit rate = 0.400036
Maximum injected flit rate = 0.457 (at node 1519)
Minimum accepted flit rate = 0.318 (at node 1202)
Average accepted flit rate = 0.399974
Maximum accepted flit rate = 0.474 (at node 3271)
Average injected packet length = 1
Average accepted packet length = 1
Total in-flight flits = 132215 (132215 measured)
latency change    = 0.00207039
throughput change = 0.000345312
1
Class 0:
Minimum packet latency = 8
Average packet latency = 33.9919
Maximum packet latency = 94
Minimum network latency = 8
Average network latency = 33.9919
Maximum network latency = 94
Slowest packet = 9790498
Minimum flit latency = 8
Average flit latency = 34.0231
Maximum flit latency = 94
Slowest flit = 9790498
Minimum fragmentation = 0
Average fragmentation = 0
Maximum fragmentation = 0
Minimum injected packet rate = 0.353333 (at node 6016)
Average injected packet rate = 0.400012
Maximum injected packet rate = 0.447333 (at node 7726)
Minimum accepted packet rate = 0.33 (at node 1202)
Average accepted packet rate = 0.399963
Maximum accepted packet rate = 0.46 (at node 8355)
Minimum injected flit rate = 0.353333 (at node 6016)
Average injected flit rate = 0.400012
Maximum injected flit rate = 0.447333 (at node 7726)
Minimum accepted flit rate = 0.33 (at node 1202)
Average accepted flit rate = 0.399963
Maximum accepted flit rate = 0.46 (at node 8355)
Average injected packet length = 1
Average accepted packet length = 1
Total in-flight flits = 132332 (132332 measured)
latency change    = 0.000257868
throughput change = 2.93781e-05
Draining all recorded packets ...
Draining remaining packets ...
Time taken is 3123 cycles
====== Traffic class 0 ======
Overall minimum packet latency = 8 (1 samples)
Overall average packet latency = 34.0265 (1 samples)
Overall maximum packet latency = 94 (1 samples)
Overall minimum network latency = 8 (1 samples)
Overall average network latency = 34.0265 (1 samples)
Overall maximum network latency = 94 (1 samples)
Overall minimum flit latency = 8 (1 samples)
Overall average flit latency = 34.0222 (1 samples)
Overall maximum flit latency = 94 (1 samples)
Overall minimum fragmentation = 0 (1 samples)
Overall average fragmentation = 0 (1 samples)
Overall maximum fragmentation = 0 (1 samples)
Overall minimum injected packet rate = 0.353333 (1 samples)
Overall average injected packet rate = 0.400012 (1 samples)
Overall maximum injected packet rate = 0.447333 (1 samples)
Overall minimum accepted packet rate = 0.33 (1 samples)
Overall average accepted packet rate = 0.399963 (1 samples)
Overall maximum accepted packet rate = 0.46 (1 samples)
Overall minimum injected flit rate = 0.353333 (1 samples)
Overall average injected flit rate = 0.400012 (1 samples)
Overall maximum injected flit rate = 0.447333 (1 samples)
Overall minimum accepted flit rate = 0.33 (1 samples)
Overall average accepted flit rate = 0.399963 (1 samples)
Overall maximum accepted flit rate = 0.46 (1 samples)
Overall average injected packet size = 1 (1 samples)
Overall average accepted packet size = 1 (1 samples)
Overall average hops = 6.66618 (1 samples)
Total run time 1909.6
