BEGIN Configuration File: ./DF.conf
injection_rate = 0.01;
traffic = bad_dragon;
use_size_power_of_two = no;
routing_function = ugal;
vc_buf_size = 16;
topology = dragonflynew;
//use_noc_latency = 0;
//hold_switch_for_packet=0;

k = 7;
n = 1;

packet_size  = 1;
num_vcs      = 3;
vc_allocator = separable_input_first; 
sw_allocator = separable_input_first;

alloc_iters   = 1;
sample_period = 500;

wait_for_tail_credit = 0;
use_read_write       = 0;

credit_delay   = 2;
routing_delay  = 0;
vc_alloc_delay = 1;
sw_alloc_delay = 1;
st_final_delay = 1;

input_speedup     = 1;
output_speedup    = 1;
internal_speedup  = 2.0;

warmup_periods = 3;
sim_count      = 1;

priority = none;
injection_rate_uses_flits=1;

END Configuration File: ./DF.conf
Number of nodes: 9702
Number of routers: 1386
 Dragonfly 
 p = 7 n = 1
 each switch - total radix =  27
 # of switches = 1386
 # of channels = 27720
 # of nodes ( size of network ) = 9702
 # of groups (_g) = 99
 # of routers per group (_a) = 14
Done links
0
Class 0:
Minimum packet latency = 11
Average packet latency = 22.0455
Maximum packet latency = 26
Minimum network latency = 11
Average network latency = 22.0455
Maximum network latency = 26
Slowest packet = 990
Minimum flit latency = 11
Average flit latency = 22.0455
Maximum flit latency = 26
Slowest flit = 990
Minimum fragmentation = 0
Average fragmentation = 0
Maximum fragmentation = 0
Minimum injected packet rate = 0 (at node 53)
Average injected packet rate = 0.010012
Maximum injected packet rate = 0.032 (at node 8081)
Minimum accepted packet rate = 0 (at node 122)
Average accepted packet rate = 0.00957493
Maximum accepted packet rate = 0.028 (at node 6254)
Minimum injected flit rate = 0 (at node 53)
Average injected flit rate = 0.010012
Maximum injected flit rate = 0.032 (at node 8081)
Minimum accepted flit rate = 0 (at node 122)
Average accepted flit rate = 0.00957493
Maximum accepted flit rate = 0.028 (at node 6254)
Average injected packet length = 1
Average accepted packet length = 1
Total in-flight flits = 2120 (0 measured)
latency change    = 1
throughput change = 1
0
Class 0:
Minimum packet latency = 8
Average packet latency = 22.0507
Maximum packet latency = 27
Minimum network latency = 8
Average network latency = 22.0507
Maximum network latency = 27
Slowest packet = 49734
Minimum flit latency = 8
Average flit latency = 22.0507
Maximum flit latency = 27
Slowest flit = 49734
Minimum fragmentation = 0
Average fragmentation = 0
Maximum fragmentation = 0
Minimum injected packet rate = 0.001 (at node 1594)
Average injected packet rate = 0.0100096
Maximum injected packet rate = 0.023 (at node 351)
Minimum accepted packet rate = 0 (at node 5297)
Average accepted packet rate = 0.00978417
Maximum accepted packet rate = 0.026 (at node 8554)
Minimum injected flit rate = 0.001 (at node 1594)
Average injected flit rate = 0.0100096
Maximum injected flit rate = 0.023 (at node 351)
Minimum accepted flit rate = 0 (at node 5297)
Average accepted flit rate = 0.00978417
Maximum accepted flit rate = 0.026 (at node 8554)
Average injected packet length = 1
Average accepted packet length = 1
Total in-flight flits = 2187 (0 measured)
latency change    = 0.000232452
throughput change = 0.0213851
0
Class 0:
Minimum packet latency = 8
Average packet latency = 22.0391
Maximum packet latency = 26
Minimum network latency = 8
Average network latency = 22.0391
Maximum network latency = 26
Slowest packet = 97615
Minimum flit latency = 8
Average flit latency = 22.0391
Maximum flit latency = 26
Slowest flit = 97615
Minimum fragmentation = 0
Average fragmentation = 0
Maximum fragmentation = 0
Minimum injected packet rate = 0 (at node 96)
Average injected packet rate = 0.00992661
Maximum injected packet rate = 0.032 (at node 417)
Minimum accepted packet rate = 0 (at node 15)
Average accepted packet rate = 0.00993919
Maximum accepted packet rate = 0.03 (at node 4137)
Minimum injected flit rate = 0 (at node 96)
Average injected flit rate = 0.00992661
Maximum injected flit rate = 0.032 (at node 417)
Minimum accepted flit rate = 0 (at node 15)
Average accepted flit rate = 0.00993919
Maximum accepted flit rate = 0.03 (at node 4137)
Average injected packet length = 1
Average accepted packet length = 1
Total in-flight flits = 2126 (0 measured)
latency change    = 0.000526623
throughput change = 0.0155968
Warmed up ...Time used is 1500 cycles
1
Class 0:
Minimum packet latency = 8
Average packet latency = 22.0368
Maximum packet latency = 26
Minimum network latency = 8
Average network latency = 22.0368
Maximum network latency = 26
Slowest packet = 155296
Minimum flit latency = 8
Average flit latency = 22.0481
Maximum flit latency = 26
Slowest flit = 155296
Minimum fragmentation = 0
Average fragmentation = 0
Maximum fragmentation = 0
Minimum injected packet rate = 0 (at node 256)
Average injected packet rate = 0.0100981
Maximum injected packet rate = 0.032 (at node 4740)
Minimum accepted packet rate = 0 (at node 295)
Average accepted packet rate = 0.0101008
Maximum accepted packet rate = 0.03 (at node 2690)
Minimum injected flit rate = 0 (at node 256)
Average injected flit rate = 0.0100981
Maximum injected flit rate = 0.032 (at node 4740)
Minimum accepted flit rate = 0 (at node 295)
Average accepted flit rate = 0.0101008
Maximum accepted flit rate = 0.03 (at node 2690)
Average injected packet length = 1
Average accepted packet length = 1
Total in-flight flits = 2113 (2113 measured)
latency change    = 0.000104159
throughput change = 0.0160003
1
Class 0:
Minimum packet latency = 8
Average packet latency = 22.0436
Maximum packet latency = 26
Minimum network latency = 8
Average network latency = 22.0436
Maximum network latency = 26
Slowest packet = 155296
Minimum flit latency = 8
Average flit latency = 22.0491
Maximum flit latency = 26
Slowest flit = 155296
Minimum fragmentation = 0
Average fragmentation = 0
Maximum fragmentation = 0
Minimum injected packet rate = 0.001 (at node 5577)
Average injected packet rate = 0.0100415
Maximum injected packet rate = 0.024 (at node 1920)
Minimum accepted packet rate = 0.001 (at node 514)
Average accepted packet rate = 0.0100502
Maximum accepted packet rate = 0.022 (at node 5282)
Minimum injected flit rate = 0.001 (at node 5577)
Average injected flit rate = 0.0100415
Maximum injected flit rate = 0.024 (at node 1920)
Minimum accepted flit rate = 0.001 (at node 514)
Average accepted flit rate = 0.0100502
Maximum accepted flit rate = 0.022 (at node 5282)
Average injected packet length = 1
Average accepted packet length = 1
Total in-flight flits = 2042 (2042 measured)
latency change    = 0.000308151
throughput change = 0.00503554
1
Class 0:
Minimum packet latency = 8
Average packet latency = 22.0452
Maximum packet latency = 27
Minimum network latency = 8
Average network latency = 22.0452
Maximum network latency = 27
Slowest packet = 255407
Minimum flit latency = 8
Average flit latency = 22.0489
Maximum flit latency = 27
Slowest flit = 255407
Minimum fragmentation = 0
Average fragmentation = 0
Maximum fragmentation = 0
Minimum injected packet rate = 0.002 (at node 5577)
Average injected packet rate = 0.0100438
Maximum injected packet rate = 0.022 (at node 346)
Minimum accepted packet rate = 0.00133333 (at node 9107)
Average accepted packet rate = 0.0100411
Maximum accepted packet rate = 0.0213333 (at node 1250)
Minimum injected flit rate = 0.002 (at node 5577)
Average injected flit rate = 0.0100438
Maximum injected flit rate = 0.022 (at node 346)
Minimum accepted flit rate = 0.00133333 (at node 9107)
Average accepted flit rate = 0.0100411
Maximum accepted flit rate = 0.0213333 (at node 1250)
Average injected packet length = 1
Average accepted packet length = 1
Total in-flight flits = 2166 (2166 measured)
latency change    = 7.63808e-05
throughput change = 0.000906739
Draining all recorded packets ...
Draining remaining packets ...
Time taken is 3052 cycles
====== Traffic class 0 ======
Overall minimum packet latency = 8 (1 samples)
Overall average packet latency = 22.048 (1 samples)
Overall maximum packet latency = 27 (1 samples)
Overall minimum network latency = 8 (1 samples)
Overall average network latency = 22.048 (1 samples)
Overall maximum network latency = 27 (1 samples)
Overall minimum flit latency = 8 (1 samples)
Overall average flit latency = 22.0514 (1 samples)
Overall maximum flit latency = 27 (1 samples)
Overall minimum fragmentation = 0 (1 samples)
Overall average fragmentation = 0 (1 samples)
Overall maximum fragmentation = 0 (1 samples)
Overall minimum injected packet rate = 0.002 (1 samples)
Overall average injected packet rate = 0.0100438 (1 samples)
Overall maximum injected packet rate = 0.022 (1 samples)
Overall minimum accepted packet rate = 0.00133333 (1 samples)
Overall average accepted packet rate = 0.0100411 (1 samples)
Overall maximum accepted packet rate = 0.0213333 (1 samples)
Overall minimum injected flit rate = 0.002 (1 samples)
Overall average injected flit rate = 0.0100438 (1 samples)
Overall maximum injected flit rate = 0.022 (1 samples)
Overall minimum accepted flit rate = 0.00133333 (1 samples)
Overall average accepted flit rate = 0.0100411 (1 samples)
Overall maximum accepted flit rate = 0.0213333 (1 samples)
Overall average injected packet size = 1 (1 samples)
Overall average accepted packet size = 1 (1 samples)
Overall average hops = 6.66455 (1 samples)
Total run time 230.816
