BEGIN Configuration File: ./RAND.conf
injection_rate = 0.01;
traffic = uniform;
use_size_power_of_two = no;
routing_function = min;
vc_buf_size = 16;
network_file = RAND_N.98.11.5.bsconf;
load_routing_file = no;
routing_table_file = RAND_N.98.11.5.bsconf.route;
topology = anynet;
//use_noc_latency = 0;
//hold_switch_for_packet=0;

k = 1;

packet_size  = 1;
num_vcs      = 4;
vc_allocator = separable_input_first; 
sw_allocator = separable_input_first;

alloc_iters   = 1;
sample_period = 500;

wait_for_tail_credit = 0;
use_read_write       = 0;

credit_delay   = 2;
routing_delay  = 0;
vc_alloc_delay = 1;
sw_alloc_delay = 1;
st_final_delay = 1;

input_speedup     = 1;
output_speedup    = 1;
internal_speedup  = 2.0;

warmup_periods = 3;
sim_count      = 1;

priority = none;
injection_rate_uses_flits=1;

END Configuration File: ./RAND.conf
========================Network File Parsed=================
******************node listing**********************

****************router to node listing*************

*****************router to router listing************
Number of nodes: 490
Number of routers: 98
==========================Node to Router =====================
==========================Router to Router =====================
========================== Build Routing table  =====================
Start searching...Routing table for router 0 done  |
Start searching...Routing table for router 1 done  |
Start searching...Routing table for router 2 done  |
Start searching...Routing table for router 3 done  |
Start searching...Routing table for router 4 done  |
Start searching...Routing table for router 5 done  |
Start searching...Routing table for router 6 done  |
Start searching...Routing table for router 7 done  |
Start searching...Routing table for router 8 done  |
Start searching...Routing table for router 9 done  |
Start searching...Routing table for router 10 done  |
Start searching...Routing table for router 11 done  |
Start searching...Routing table for router 12 done  |
Start searching...Routing table for router 13 done  |
Start searching...Routing table for router 14 done  |
Start searching...Routing table for router 15 done  |
Start searching...Routing table for router 16 done  |
Start searching...Routing table for router 17 done  |
Start searching...Routing table for router 18 done  |
Start searching...Routing table for router 19 done  |
Start searching...Routing table for router 20 done  |
Start searching...Routing table for router 21 done  |
Start searching...Routing table for router 22 done  |
Start searching...Routing table for router 23 done  |
Start searching...Routing table for router 24 done  |
Start searching...Routing table for router 25 done  |
Start searching...Routing table for router 26 done  |
Start searching...Routing table for router 27 done  |
Start searching...Routing table for router 28 done  |
Start searching...Routing table for router 29 done  |
Start searching...Routing table for router 30 done  |
Start searching...Routing table for router 31 done  |
Start searching...Routing table for router 32 done  |
Start searching...Routing table for router 33 done  |
Start searching...Routing table for router 34 done  |
Start searching...Routing table for router 35 done  |
Start searching...Routing table for router 36 done  |
Start searching...Routing table for router 37 done  |
Start searching...Routing table for router 38 done  |
Start searching...Routing table for router 39 done  |
Start searching...Routing table for router 40 done  |
Start searching...Routing table for router 41 done  |
Start searching...Routing table for router 42 done  |
Start searching...Routing table for router 43 done  |
Start searching...Routing table for router 44 done  |
Start searching...Routing table for router 45 done  |
Start searching...Routing table for router 46 done  |
Start searching...Routing table for router 47 done  |
Start searching...Routing table for router 48 done  |
Start searching...Routing table for router 49 done  |
Start searching...Routing table for router 50 done  |
Start searching...Routing table for router 51 done  |
Start searching...Routing table for router 52 done  |
Start searching...Routing table for router 53 done  |
Start searching...Routing table for router 54 done  |
Start searching...Routing table for router 55 done  |
Start searching...Routing table for router 56 done  |
Start searching...Routing table for router 57 done  |
Start searching...Routing table for router 58 done  |
Start searching...Routing table for router 59 done  |
Start searching...Routing table for router 60 done  |
Start searching...Routing table for router 61 done  |
Start searching...Routing table for router 62 done  |
Start searching...Routing table for router 63 done  |
Start searching...Routing table for router 64 done  |
Start searching...Routing table for router 65 done  |
Start searching...Routing table for router 66 done  |
Start searching...Routing table for router 67 done  |
Start searching...Routing table for router 68 done  |
Start searching...Routing table for router 69 done  |
Start searching...Routing table for router 70 done  |
Start searching...Routing table for router 71 done  |
Start searching...Routing table for router 72 done  |
Start searching...Routing table for router 73 done  |
Start searching...Routing table for router 74 done  |
Start searching...Routing table for router 75 done  |
Start searching...Routing table for router 76 done  |
Start searching...Routing table for router 77 done  |
Start searching...Routing table for router 78 done  |
Start searching...Routing table for router 79 done  |
Start searching...Routing table for router 80 done  |
Start searching...Routing table for router 81 done  |
Start searching...Routing table for router 82 done  |
Start searching...Routing table for router 83 done  |
Start searching...Routing table for router 84 done  |
Start searching...Routing table for router 85 done  |
Start searching...Routing table for router 86 done  |
Start searching...Routing table for router 87 done  |
Start searching...Routing table for router 88 done  |
Start searching...Routing table for router 89 done  |
Start searching...Routing table for router 90 done  |
Start searching...Routing table for router 91 done  |
Start searching...Routing table for router 92 done  |
Start searching...Routing table for router 93 done  |
Start searching...Routing table for router 94 done  |
Start searching...Routing table for router 95 done  |
Start searching...Routing table for router 96 done  |
Start searching...Routing table for router 97 done  |

========================== Build Routing table done  =====================

Saving routing table...
========================== Building Bad traffic pattern, type 3... ============================
>>>>>>>>> Routers selected for traffic: 13, 84
Repeating (no neighbors)...>>>>>>>>> Routers selected for traffic: 41, 24
Repeating (no neighbors)...>>>>>>>>> Routers selected for traffic: 15, 38
********************* SUCCESS: selected 15 and 38
>>>>>>>>> Routers selected for traffic: 78, 94
Repeating (no neighbors)...>>>>>>>>> Routers selected for traffic: 26, 32
Repeating (no neighbors)...>>>>>>>>> Routers selected for traffic: 24, 33
Repeating (used 2)...>>>>>>>>> Routers selected for traffic: 29, 44
Repeating (no neighbors)...>>>>>>>>> Routers selected for traffic: 68, 44
Repeating (no neighbors)...>>>>>>>>> Routers selected for traffic: 82, 58
Repeating (no neighbors)...>>>>>>>>> Routers selected for traffic: 83, 64
Repeating (no neighbors)...>>>>>>>>> Routers selected for traffic: 42, 41
Repeating (used)...>>>>>>>>> Routers selected for traffic: 65, 51
Repeating (no neighbors)...>>>>>>>>> Routers selected for traffic: 84, 84
Repeating (the same)...>>>>>>>>> Routers selected for traffic: 36, 54
Repeating (no neighbors)...>>>>>>>>> Routers selected for traffic: 9, 65
Repeating (no neighbors)...>>>>>>>>> Routers selected for traffic: 76, 29
Repeating (no neighbors)...>>>>>>>>> Routers selected for traffic: 82, 54
Repeating (no neighbors)...>>>>>>>>> Routers selected for traffic: 36, 69
Repeating (no neighbors)...>>>>>>>>> Routers selected for traffic: 64, 23
Repeating (no neighbors)...>>>>>>>>> Routers selected for traffic: 59, 58
Repeating (used)...>>>>>>>>> Routers selected for traffic: 90, 21
Repeating (no neighbors)...>>>>>>>>> Routers selected for traffic: 9, 49
Repeating (no neighbors)...>>>>>>>>> Routers selected for traffic: 83, 40
Repeating (no neighbors)...>>>>>>>>> Routers selected for traffic: 77, 65
Repeating (no neighbors)...>>>>>>>>> Routers selected for traffic: 20, 90
Repeating (no neighbors)...>>>>>>>>> Routers selected for traffic: 75, 93
Repeating (no neighbors)...>>>>>>>>> Routers selected for traffic: 22, 94
Repeating (no neighbors)...>>>>>>>>> Routers selected for traffic: 64, 84
Repeating (no neighbors)...>>>>>>>>> Routers selected for traffic: 20, 93
Repeating (no neighbors)...>>>>>>>>> Routers selected for traffic: 45, 49
Repeating (no neighbors)...>>>>>>>>> Routers selected for traffic: 64, 54
Repeating (used)...>>>>>>>>> Routers selected for traffic: 18, 26
Repeating (no neighbors)...>>>>>>>>> Routers selected for traffic: 69, 93
Repeating (no neighbors)...>>>>>>>>> Routers selected for traffic: 7, 72
Repeating (no neighbors)...>>>>>>>>> Routers selected for traffic: 40, 30
Repeating (no neighbors)...>>>>>>>>> Routers selected for traffic: 9, 56
Repeating (no neighbors)...>>>>>>>>> Routers selected for traffic: 68, 26
Repeating (no neighbors)...>>>>>>>>> Routers selected for traffic: 91, 86
Repeating (no neighbors)...>>>>>>>>> Routers selected for traffic: 31, 70
Repeating (no neighbors)...>>>>>>>>> Routers selected for traffic: 19, 53
Repeating (no neighbors)...>>>>>>>>> Routers selected for traffic: 93, 91
Repeating (used)...>>>>>>>>> Routers selected for traffic: 77, 4
Repeating (no neighbors)...>>>>>>>>> Routers selected for traffic: 49, 36
Repeating (no neighbors)...>>>>>>>>> Routers selected for traffic: 26, 22
Repeating (no neighbors)...>>>>>>>>> Routers selected for traffic: 94, 94
Repeating (the same)...>>>>>>>>> Routers selected for traffic: 86, 63
Repeating (no neighbors)...>>>>>>>>> Routers selected for traffic: 85, 18
Repeating (no neighbors)...>>>>>>>>> Routers selected for traffic: 26, 35
Repeating (no neighbors)...>>>>>>>>> Routers selected for traffic: 44, 53
Repeating (no neighbors)...>>>>>>>>> Routers selected for traffic: 84, 72
Repeating (no neighbors)...>>>>>>>>> Routers selected for traffic: 85, 72
Repeating (used)...>>>>>>>>> Routers selected for traffic: 44, 20
Repeating (no neighbors)...>>>>>>>>> Routers selected for traffic: 76, 73
Repeating (no neighbors)...>>>>>>>>> Routers selected for traffic: 53, 51
Repeating (no neighbors)...>>>>>>>>> Routers selected for traffic: 20, 29
Repeating (no neighbors)...>>>>>>>>> Routers selected for traffic: 65, 81
Repeating (no neighbors)...>>>>>>>>> Routers selected for traffic: 4, 7
Repeating (no neighbors)...>>>>>>>>> Routers selected for traffic: 84, 5
Repeating (no neighbors)...>>>>>>>>> Routers selected for traffic: 30, 47
Repeating (no neighbors)...>>>>>>>>> Routers selected for traffic: 97, 63
Repeating (no neighbors)...>>>>>>>>> Routers selected for traffic: 84, 45
Repeating (no neighbors)...>>>>>>>>> Routers selected for traffic: 56, 4
Repeating (no neighbors)...>>>>>>>>> Routers selected for traffic: 51, 18
Repeating (no neighbors)...>>>>>>>>> Routers selected for traffic: 66, 94
Repeating (no neighbors)...>>>>>>>>> Routers selected for traffic: 18, 26
Repeating (no neighbors)...>>>>>>>>> Routers selected for traffic: 84, 97
Repeating (no neighbors)...>>>>>>>>> Routers selected for traffic: 73, 44
Repeating (no neighbors)...>>>>>>>>> Routers selected for traffic: 19, 50
Repeating (no neighbors)...>>>>>>>>> Routers selected for traffic: 22, 74
Repeating (used)...>>>>>>>>> Routers selected for traffic: 31, 51
Repeating (no neighbors)...>>>>>>>>> Routers selected for traffic: 84, 44
Repeating (no neighbors)...>>>>>>>>> Routers selected for traffic: 50, 12
Repeating (no neighbors)...>>>>>>>>> Routers selected for traffic: 27, 36
Repeating (no neighbors)...>>>>>>>>> Routers selected for traffic: 69, 30
Repeating (no neighbors)...>>>>>>>>> Routers selected for traffic: 76, 5
Repeating (no neighbors)...>>>>>>>>> Routers selected for traffic: 65, 44
Repeating (no neighbors)...>>>>>>>>> Routers selected for traffic: 23, 35
Repeating (no neighbors)...>>>>>>>>> Routers selected for traffic: 27, 26
Repeating (used)...>>>>>>>>> Routers selected for traffic: 83, 44
Repeating (no neighbors)...>>>>>>>>> Routers selected for traffic: 66, 31
Repeating (no neighbors)...>>>>>>>>> Routers selected for traffic: 77, 76
Repeating (used)...>>>>>>>>> Routers selected for traffic: 29, 23
Repeating (no neighbors)...>>>>>>>>> Routers selected for traffic: 63, 82
Repeating (no neighbors)...>>>>>>>>> Routers selected for traffic: 69, 19
Repeating (no neighbors)...>>>>>>>>> Routers selected for traffic: 18, 68
Repeating (no neighbors)...>>>>>>>>> Routers selected for traffic: 50, 44
Repeating (no neighbors)...>>>>>>>>> Routers selected for traffic: 23, 63
Repeating (no neighbors)...>>>>>>>>> Routers selected for traffic: 19, 68
Repeating (no neighbors)...>>>>>>>>> Routers selected for traffic: 68, 68
Repeating (the same)...>>>>>>>>> Routers selected for traffic: 20, 62
Repeating (no neighbors)...>>>>>>>>> Routers selected for traffic: 31, 60
Repeating (no neighbors)...>>>>>>>>> Routers selected for traffic: 97, 70
Repeating (no neighbors)...>>>>>>>>> Routers selected for traffic: 82, 84
Repeating (no neighbors)...>>>>>>>>> Routers selected for traffic: 4, 30
Repeating (no neighbors)...>>>>>>>>> Routers selected for traffic: 73, 82
Repeating (no neighbors)...>>>>>>>>> Routers selected for traffic: 47, 5
Repeating (no neighbors)...>>>>>>>>> Routers selected for traffic: 7, 49
Repeating (no neighbors)...>>>>>>>>> Routers selected for traffic: 30, 50
Repeating (no neighbors)...>>>>>>>>> Routers selected for traffic: 31, 90
Repeating (no neighbors)...>>>>>>>>> Routers selected for traffic: 65, 45
Repeating (no neighbors)...>>>>>>>>> Routers selected for traffic: 45, 84
Repeating (no neighbors)...>>>>>>>>> Routers selected for traffic: 60, 62
Repeating (no neighbors)...>>>>>>>>> Routers selected for traffic: 31, 69
Repeating (no neighbors)...>>>>>>>>> Routers selected for traffic: 7, 73
Repeating (no neighbors)...>>>>>>>>> Routers selected for traffic: 20, 29
Repeating (no neighbors)...>>>>>>>>> Routers selected for traffic: 35, 49
Repeating (no neighbors)...>>>>>>>>> Routers selected for traffic: 75, 35
Repeating (no neighbors)...>>>>>>>>> Routers selected for traffic: 95, 47
Repeating (no neighbors)...>>>>>>>>> Routers selected for traffic: 95, 95
Repeating (the same)...>>>>>>>>> Routers selected for traffic: 66, 56
Repeating (no neighbors)...>>>>>>>>> Routers selected for traffic: 65, 84
Repeating (used)...>>>>>>>>> Routers selected for traffic: 95, 35
Repeating (no neighbors)...>>>>>>>>> Routers selected for traffic: 70, 7
Repeating (no neighbors)...>>>>>>>>> Routers selected for traffic: 30, 69
Repeating (no neighbors)...>>>>>>>>> Routers selected for traffic: 7, 40
Repeating (no neighbors)...>>>>>>>>> Routers selected for traffic: 97, 63
Repeating (no neighbors)...>>>>>>>>> Routers selected for traffic: 86, 40
Repeating (no neighbors)...>>>>>>>>> Routers selected for traffic: 19, 75
Repeating (no neighbors)...>>>>>>>>> Routers selected for traffic: 4, 49
Repeating (used)...>>>>>>>>> Routers selected for traffic: 63, 12
Repeating (no neighbors)...>>>>>>>>> Routers selected for traffic: 82, 90
Repeating (used)...>>>>>>>>> Routers selected for traffic: 53, 73
Repeating (no neighbors)...>>>>>>>>> Routers selected for traffic: 69, 66
Repeating (no neighbors)...>>>>>>>>> Routers selected for traffic: 86, 50
Repeating (no neighbors)...>>>>>>>>> Routers selected for traffic: 81, 40
Repeating (no neighbors)...>>>>>>>>> Routers selected for traffic: 79, 40
Repeating (no neighbors)...>>>>>>>>> Routers selected for traffic: 31, 50
Repeating (used)...>>>>>>>>> Routers selected for traffic: 47, 79
Repeating (no neighbors)...>>>>>>>>> Routers selected for traffic: 44, 63
Repeating (no neighbors)...>>>>>>>>> Routers selected for traffic: 60, 47
Repeating (no neighbors)...>>>>>>>>> Routers selected for traffic: 53, 19
Repeating (no neighbors)...>>>>>>>>> Routers selected for traffic: 7, 44
Repeating (no neighbors)...>>>>>>>>> Routers selected for traffic: 23, 5
Repeating (no neighbors)...>>>>>>>>> Routers selected for traffic: 56, 70
Repeating (no neighbors)...>>>>>>>>> Routers selected for traffic: 83, 45
Repeating (used)...>>>>>>>>> Routers selected for traffic: 79, 23
Repeating (no neighbors)...>>>>>>>>> Routers selected for traffic: 29, 9
Repeating (used)...>>>>>>>>> Routers selected for traffic: 97, 30
Repeating (used)...>>>>>>>>> Routers selected for traffic: 23, 47
Repeating (no neighbors)...>>>>>>>>> Routers selected for traffic: 36, 94
Repeating (used)...>>>>>>>>> Routers selected for traffic: 79, 60
Repeating (used)...>>>>>>>>> Routers selected for traffic: 47, 47
Repeating (the same)...>>>>>>>>> Routers selected for traffic: 47, 44
Repeating (no neighbors)...>>>>>>>>> Routers selected for traffic: 63, 73
Repeating (used)...>>>>>>>>> Routers selected for traffic: 81, 66
Repeating (used)...>>>>>>>>> Routers selected for traffic: 51, 12
Repeating (no neighbors)...>>>>>>>>> Routers selected for traffic: 44, 53
Repeating (no neighbors)...>>>>>>>>> Routers selected for traffic: 12, 69
Repeating (used)...>>>>>>>>> Routers selected for traffic: 86, 95
Repeating (no neighbors)...>>>>>>>>> Routers selected for traffic: 44, 23
Repeating (no neighbors)...>>>>>>>>> Routers selected for traffic: 75, 35
Repeating (no neighbors)...>>>>>>>>> Routers selected for traffic: 35, 53
Repeating (no neighbors)...>>>>>>>>> Routers selected for traffic: 44, 18
Repeating (no neighbors)...>>>>>>>>> Routers selected for traffic: 35, 53
Repeating (no neighbors)...>>>>>>>>> Routers selected for traffic: 95, 20
Repeating (no neighbors)...>>>>>>>>> Routers selected for traffic: 75, 75
Repeating (the same)...>>>>>>>>> Routers selected for traffic: 75, 53
Repeating (no neighbors)...>>>>>>>>> Routers selected for traffic: 75, 86
Repeating (no neighbors)...>>>>>>>>> Routers selected for traffic: 86, 53
Repeating (no neighbors)...>>>>>>>>> Routers selected for traffic: 44, 23
Repeating (no neighbors)...>>>>>>>>> Routers selected for traffic: 95, 40
Repeating (no neighbors)...>>>>>>>>> Routers selected for traffic: 20, 18
Repeating (no neighbors)...>>>>>>>>> Routers selected for traffic: 75, 53
Repeating (no neighbors)...>>>>>>>>> Routers selected for traffic: 47, 23
Repeating (no neighbors)...>>>>>>>>> Routers selected for traffic: 51, 70
Repeating (no neighbors)...>>>>>>>>> Routers selected for traffic: 75, 40
Repeating (no neighbors)...>>>>>>>>> Routers selected for traffic: 7, 20
Repeating (no neighbors)...>>>>>>>>> Routers selected for traffic: 40, 75
Repeating (no neighbors)...>>>>>>>>> Routers selected for traffic: 23, 18
Repeating (no neighbors)...>>>>>>>>> Routers selected for traffic: 47, 23
Repeating (no neighbors)...>>>>>>>>> Routers selected for traffic: 62, 35
Repeating (no neighbors)...>>>>>>>>> Routers selected for traffic: 51, 51
Repeating (the same)...>>>>>>>>> Routers selected for traffic: 35, 70
Repeating (no neighbors)...>>>>>>>>> Routers selected for traffic: 86, 20
Repeating (no neighbors)...>>>>>>>>> Routers selected for traffic: 70, 68
Repeating (used)...>>>>>>>>> Routers selected for traffic: 75, 7
Repeating (no neighbors)...>>>>>>>>> Routers selected for traffic: 18, 86
Repeating (no neighbors)...>>>>>>>>> Routers selected for traffic: 20, 86
Repeating (no neighbors)...>>>>>>>>> Routers selected for traffic: 75, 53
Repeating (no neighbors)...>>>>>>>>> Routers selected for traffic: 44, 18
Repeating (no neighbors)...>>>>>>>>> Routers selected for traffic: 75, 47
Repeating (no neighbors)...>>>>>>>>> Routers selected for traffic: 75, 75
Repeating (the same)...>>>>>>>>> Routers selected for traffic: 51, 56
Repeating (no neighbors)...>>>>>>>>> Routers selected for traffic: 86, 47
Repeating (used)...>>>>>>>>> Routers selected for traffic: 35, 75
Repeating (no neighbors)...>>>>>>>>> Routers selected for traffic: 62, 51
Repeating (used)...>>>>>>>>> Routers selected for traffic: 35, 95
Repeating (no neighbors)...>>>>>>>>> Routers selected for traffic: 40, 75
Repeating (no neighbors)...>>>>>>>>> Routers selected for traffic: 44, 53
Repeating (no neighbors)...>>>>>>>>> Routers selected for traffic: 56, 7
Repeating (no neighbors)...>>>>>>>>> Routers selected for traffic: 7, 20
Repeating (no neighbors)...>>>>>>>>> Routers selected for traffic: 95, 20
Repeating (no neighbors)...>>>>>>>>> Routers selected for traffic: 40, 95
Repeating (no neighbors)...>>>>>>>>> Routers selected for traffic: 75, 7
Repeating (no neighbors)...>>>>>>>>> Routers selected for traffic: 44, 75
Repeating (no neighbors)...>>>>>>>>> Routers selected for traffic: 35, 20
Repeating (no neighbors)...>>>>>>>>> Routers selected for traffic: 95, 75
Repeating (no neighbors)...>>>>>>>>> Routers selected for traffic: 75, 35
Repeating (no neighbors)...>>>>>>>>> Routers selected for traffic: 95, 56
Repeating (no neighbors)...>>>>>>>>> Routers selected for traffic: 44, 56
Repeating (used)...>>>>>>>>> Routers selected for traffic: 35, 40
Repeating (no neighbors)...>>>>>>>>> Routers selected for traffic: 35, 40
Repeating (no neighbors)...>>>>>>>>> Routers selected for traffic: 53, 35
Repeating (no neighbors)...>>>>>>>>> Routers selected for traffic: 53, 35
Repeating (no neighbors)...>>>>>>>>> Routers selected for traffic: 40, 7
Repeating (no neighbors)...>>>>>>>>> Routers selected for traffic: 35, 7
Repeating (no neighbors)...>>>>>>>>> Routers selected for traffic: 53, 20
Repeating (used)...>>>>>>>>> Routers selected for traffic: 95, 7
Repeating (no neighbors)...>>>>>>>>> Routers selected for traffic: 7, 75
Repeating (no neighbors)...>>>>>>>>> Routers selected for traffic: 95, 95
Repeating (the same)...>>>>>>>>> Routers selected for traffic: 40, 7
Repeating (no neighbors)...>>>>>>>>> Routers selected for traffic: 7, 95
Repeating (no neighbors)...>>>>>>>>> Routers selected for traffic: 95, 35
Repeating (no neighbors)...>>>>>>>>> Routers selected for traffic: 7, 7
Repeating (the same)...>>>>>>>>> Routers selected for traffic: 95, 7
Repeating (no neighbors)...>>>>>>>>> Routers selected for traffic: 35, 75
Repeating (no neighbors)...>>>>>>>>> Routers selected for traffic: 95, 95
Repeating (the same)...>>>>>>>>> Routers selected for traffic: 35, 75
Repeating (no neighbors)...>>>>>>>>> Routers selected for traffic: 7, 35
Repeating (no neighbors)...>>>>>>>>> Routers selected for traffic: 35, 35
Repeating (the same)...>>>>>>>>> Routers selected for traffic: 40, 95
Repeating (no neighbors)...>>>>>>>>> Routers selected for traffic: 95, 95
Repeating (the same)...>>>>>>>>> Routers selected for traffic: 95, 7
Repeating (no neighbors)...>>>>>>>>> Routers selected for traffic: 35, 95
Repeating (no neighbors)...>>>>>>>>> Routers selected for traffic: 35, 7
Repeating (no neighbors)...>>>>>>>>> Routers selected for traffic: 35, 75
Repeating (no neighbors)...>>>>>>>>> Routers selected for traffic: 75, 75
Repeating (the same)...>>>>>>>>> Routers selected for traffic: 95, 40
Repeating (no neighbors)...>>>>>>>>> Routers selected for traffic: 35, 95
Repeating (no neighbors)...>>>>>>>>> Routers selected for traffic: 7, 75
Repeating (no neighbors)...>>>>>>>>> Routers selected for traffic: 35, 35
Repeating (the same)...>>>>>>>>> Routers selected for traffic: 75, 35
Repeating (no neighbors)...>>>>>>>>> Routers selected for traffic: 35, 95
Repeating (no neighbors)...>>>>>>>>> Routers selected for traffic: 95, 75
Repeating (no neighbors)...>>>>>>>>> Routers selected for traffic: 35, 7
Repeating (no neighbors)...>>>>>>>>> Routers selected for traffic: 95, 7
Repeating (no neighbors)...>>>>>>>>> Routers selected for traffic: 35, 7
Repeating (no neighbors)...>>>>>>>>> Routers selected for traffic: 95, 7
Repeating (no neighbors)...>>>>>>>>> Routers selected for traffic: 40, 35
Repeating (no neighbors)...>>>>>>>>> Routers selected for traffic: 40, 75
Repeating (no neighbors)...>>>>>>>>> Routers selected for traffic: 75, 7
Repeating (no neighbors)...>>>>>>>>> Routers selected for traffic: 75, 35
Repeating (no neighbors)...>>>>>>>>> Routers selected for traffic: 75, 75
Repeating (the same)...>>>>>>>>> Routers selected for traffic: 35, 40
Repeating (no neighbors)...>>>>>>>>> Routers selected for traffic: 95, 35
Repeating (no neighbors)...>>>>>>>>> Routers selected for traffic: 40, 35
Repeating (no neighbors)...>>>>>>>>> Routers selected for traffic: 40, 7
Repeating (no neighbors)...>>>>>>>>> Routers selected for traffic: 95, 7
Repeating (no neighbors)...>>>>>>>>> Routers selected for traffic: 95, 75
Repeating (no neighbors)...>>>>>>>>> Routers selected for traffic: 75, 40
Repeating (no neighbors)...>>>>>>>>> Routers selected for traffic: 35, 95
Repeating (no neighbors)...>>>>>>>>> Routers selected for traffic: 75, 95
Repeating (no neighbors)...>>>>>>>>> Routers selected for traffic: 35, 95
Repeating (no neighbors)...>>>>>>>>> Routers selected for traffic: 7, 95
Repeating (no neighbors)...>>>>>>>>> Routers selected for traffic: 7, 40
Repeating (no neighbors)...>>>>>>>>> Routers selected for traffic: 95, 35
Repeating (no neighbors)...>>>>>>>>> Routers selected for traffic: 95, 75
Repeating (no neighbors)...>>>>>>>>> Routers selected for traffic: 40, 95
Repeating (no neighbors)...>>>>>>>>> Routers selected for traffic: 75, 75
Repeating (the same)...>>>>>>>>> Routers selected for traffic: 35, 40
Repeating (no neighbors)...>>>>>>>>> Routers selected for traffic: 35, 75
Repeating (no neighbors)...>>>>>>>>> Routers selected for traffic: 7, 35
Repeating (no neighbors)...>>>>>>>>> Routers selected for traffic: 7, 95
Repeating (no neighbors)...>>>>>>>>> Routers selected for traffic: 35, 40
Repeating (no neighbors)...>>>>>>>>> Routers selected for traffic: 7, 7
Repeating (the same)...>>>>>>>>> Routers selected for traffic: 95, 75
Repeating (no neighbors)...>>>>>>>>> Routers selected for traffic: 35, 95
Repeating (no neighbors)...>>>>>>>>> Routers selected for traffic: 40, 75
Repeating (no neighbors)...>>>>>>>>> Routers selected for traffic: 35, 40
Repeating (no neighbors)...>>>>>>>>> Routers selected for traffic: 40, 35
Repeating (no neighbors)...>>>>>>>>> Routers selected for traffic: 35, 75
Repeating (no neighbors)...>>>>>>>>> Routers selected for traffic: 40, 7
Repeating (no neighbors)...>>>>>>>>> Routers selected for traffic: 35, 40
Repeating (no neighbors)...>>>>>>>>> Routers selected for traffic: 7, 35
Repeating (no neighbors)...>>>>>>>>> Routers selected for traffic: 40, 75
Repeating (no neighbors)...>>>>>>>>> Routers selected for traffic: 35, 95
Repeating (no neighbors)...>>>>>>>>> Routers selected for traffic: 95, 35
Repeating (no neighbors)...>>>>>>>>> Routers selected for traffic: 7, 95
Repeating (no neighbors)...>>>>>>>>> Routers selected for traffic: 75, 75
Repeating (the same)...>>>>>>>>> Routers selected for traffic: 35, 75
Repeating (no neighbors)...>>>>>>>>> Routers selected for traffic: 7, 75
Repeating (no neighbors)...>>>>>>>>> Routers selected for traffic: 75, 40
Repeating (no neighbors)...>>>>>>>>> Routers selected for traffic: 40, 7
Repeating (no neighbors)...>>>>>>>>> Routers selected for traffic: 7, 7
Repeating (the same)...>>>>>>>>> Routers selected for traffic: 75, 95
Repeating (no neighbors)...>>>>>>>>> Routers selected for traffic: 40, 35
Repeating (no neighbors)...>>>>>>>>> Routers selected for traffic: 40, 35
Repeating (no neighbors)...>>>>>>>>> Routers selected for traffic: 95, 95
Repeating (the same)...>>>>>>>>> Routers selected for traffic: 7, 95
Repeating (no neighbors)...>>>>>>>>> Routers selected for traffic: 7, 75
Repeating (no neighbors)...>>>>>>>>> Routers selected for traffic: 95, 35
Repeating (no neighbors)...>>>>>>>>> Routers selected for traffic: 95, 75
Repeating (no neighbors)...>>>>>>>>> Routers selected for traffic: 7, 35
Repeating (no neighbors)...>>>>>>>>> Routers selected for traffic: 75, 7
Repeating (no neighbors)...>>>>>>>>> Routers selected for traffic: 95, 95
Repeating (the same)...>>>>>>>>> Routers selected for traffic: 75, 7
Repeating (no neighbors)...>>>>>>>>> Routers selected for traffic: 95, 75
Repeating (no neighbors)...>>>>>>>>> Routers selected for traffic: 40, 95
Repeating (no neighbors)...>>>>>>>>> Routers selected for traffic: 75, 40
Repeating (no neighbors)...>>>>>>>>> Routers selected for traffic: 95, 75
Repeating (no neighbors)...>>>>>>>>> Routers selected for traffic: 75, 35
Repeating (no neighbors)...>>>>>>>>> Routers selected for traffic: 7, 7
Repeating (the same)...>>>>>>>>> Routers selected for traffic: 7, 35
Repeating (no neighbors)...>>>>>>>>> Routers selected for traffic: 35, 7
Repeating (no neighbors)...>>>>>>>>> Routers selected for traffic: 7, 40
Repeating (no neighbors)...>>>>>>>>> Routers selected for traffic: 7, 35
Repeating (no neighbors)...>>>>>>>>> Routers selected for traffic: 7, 95
Repeating (no neighbors)...>>>>>>>>> Routers selected for traffic: 7, 40
Repeating (no neighbors)...>>>>>>>>> Routers selected for traffic: 7, 7
Repeating (the same)...>>>>>>>>> Routers selected for traffic: 40, 40
Repeating (the same)...>>>>>>>>> Routers selected for traffic: 95, 40
Repeating (no neighbors)...>>>>>>>>> Routers selected for traffic: 95, 35
Repeating (no neighbors)...>>>>>>>>> Routers selected for traffic: 7, 75
Repeating (no neighbors)...>>>>>>>>> Routers selected for traffic: 7, 35
Repeating (no neighbors)...>>>>>>>>> Routers selected for traffic: 40, 95
Repeating (no neighbors)...>>>>>>>>> Routers selected for traffic: 95, 7
Repeating (no neighbors)...>>>>>>>>> Routers selected for traffic: 35, 35
Repeating (the same)...>>>>>>>>> Routers selected for traffic: 7, 75
Repeating (no neighbors)...>>>>>>>>> Routers selected for traffic: 40, 40
Repeating (the same)...>>>>>>>>> Routers selected for traffic: 75, 95
Repeating (no neighbors)...>>>>>>>>> Routers selected for traffic: 35, 95
Repeating (no neighbors)...>>>>>>>>> Routers selected for traffic: 35, 35
Repeating (the same)...>>>>>>>>> Routers selected for traffic: 7, 75
Repeating (no neighbors)...>>>>>>>>> Routers selected for traffic: 35, 75
Repeating (no neighbors)...>>>>>>>>> Routers selected for traffic: 75, 75
Repeating (the same)...>>>>>>>>> Routers selected for traffic: 7, 95
Repeating (no neighbors)...>>>>>>>>> Routers selected for traffic: 75, 35
Repeating (no neighbors)...>>>>>>>>> Routers selected for traffic: 7, 75
Too many failed attempts, finishing...
Repeating (used)...=================== Finished building worst-case traffic pattern... ====================
Sum of nodes sending: 100
Sum of nodes: 490
0
Class 0:
Minimum packet latency = 5
Average packet latency = 11.3638
Maximum packet latency = 15
Minimum network latency = 5
Average network latency = 11.3638
Maximum network latency = 15
Slowest packet = 418
Minimum flit latency = 5
Average flit latency = 11.3638
Maximum flit latency = 15
Slowest flit = 418
Minimum fragmentation = 0
Average fragmentation = 0
Maximum fragmentation = 0
Minimum injected packet rate = 0 (at node 104)
Average injected packet rate = 0.00994694
Maximum injected packet rate = 0.026 (at node 187)
Minimum accepted packet rate = 0 (at node 146)
Average accepted packet rate = 0.00973878
Maximum accepted packet rate = 0.026 (at node 367)
Minimum injected flit rate = 0 (at node 104)
Average injected flit rate = 0.00994694
Maximum injected flit rate = 0.026 (at node 187)
Minimum accepted flit rate = 0 (at node 146)
Average accepted flit rate = 0.00973878
Maximum accepted flit rate = 0.026 (at node 367)
Average injected packet length = 1
Average accepted packet length = 1
Total in-flight flits = 51 (0 measured)
latency change    = 1
throughput change = 1
0
Class 0:
Minimum packet latency = 5
Average packet latency = 11.3938
Maximum packet latency = 15
Minimum network latency = 5
Average network latency = 11.3938
Maximum network latency = 15
Slowest packet = 418
Minimum flit latency = 5
Average flit latency = 11.3938
Maximum flit latency = 15
Slowest flit = 418
Minimum fragmentation = 0
Average fragmentation = 0
Maximum fragmentation = 0
Minimum injected packet rate = 0.002 (at node 228)
Average injected packet rate = 0.00987959
Maximum injected packet rate = 0.019 (at node 436)
Minimum accepted packet rate = 0.002 (at node 41)
Average accepted packet rate = 0.00977347
Maximum accepted packet rate = 0.019 (at node 194)
Minimum injected flit rate = 0.002 (at node 228)
Average injected flit rate = 0.00987959
Maximum injected flit rate = 0.019 (at node 436)
Minimum accepted flit rate = 0.002 (at node 41)
Average accepted flit rate = 0.00977347
Maximum accepted flit rate = 0.019 (at node 194)
Average injected packet length = 1
Average accepted packet length = 1
Total in-flight flits = 52 (0 measured)
latency change    = 0.00263567
throughput change = 0.0035498
0
Class 0:
Minimum packet latency = 5
Average packet latency = 11.3634
Maximum packet latency = 15
Minimum network latency = 5
Average network latency = 11.3634
Maximum network latency = 15
Slowest packet = 4953
Minimum flit latency = 5
Average flit latency = 11.3634
Maximum flit latency = 15
Slowest flit = 4953
Minimum fragmentation = 0
Average fragmentation = 0
Maximum fragmentation = 0
Minimum injected packet rate = 0 (at node 143)
Average injected packet rate = 0.0100857
Maximum injected packet rate = 0.03 (at node 103)
Minimum accepted packet rate = 0 (at node 78)
Average accepted packet rate = 0.00996327
Maximum accepted packet rate = 0.03 (at node 12)
Minimum injected flit rate = 0 (at node 143)
Average injected flit rate = 0.0100857
Maximum injected flit rate = 0.03 (at node 103)
Minimum accepted flit rate = 0 (at node 78)
Average accepted flit rate = 0.00996327
Maximum accepted flit rate = 0.03 (at node 12)
Average injected packet length = 1
Average accepted packet length = 1
Total in-flight flits = 82 (0 measured)
latency change    = 0.00267909
throughput change = 0.0190496
Warmed up ...Time used is 1500 cycles
1
Class 0:
Minimum packet latency = 5
Average packet latency = 11.3068
Maximum packet latency = 15
Minimum network latency = 5
Average network latency = 11.3068
Maximum network latency = 15
Slowest packet = 7362
Minimum flit latency = 5
Average flit latency = 11.312
Maximum flit latency = 15
Slowest flit = 7362
Minimum fragmentation = 0
Average fragmentation = 0
Maximum fragmentation = 0
Minimum injected packet rate = 0 (at node 74)
Average injected packet rate = 0.00986122
Maximum injected packet rate = 0.026 (at node 355)
Minimum accepted packet rate = 0 (at node 49)
Average accepted packet rate = 0.00996735
Maximum accepted packet rate = 0.022 (at node 225)
Minimum injected flit rate = 0 (at node 74)
Average injected flit rate = 0.00986122
Maximum injected flit rate = 0.026 (at node 355)
Minimum accepted flit rate = 0 (at node 49)
Average accepted flit rate = 0.00996735
Maximum accepted flit rate = 0.022 (at node 225)
Average injected packet length = 1
Average accepted packet length = 1
Total in-flight flits = 56 (56 measured)
latency change    = 0.00500549
throughput change = 0.0004095
1
Class 0:
Minimum packet latency = 5
Average packet latency = 11.341
Maximum packet latency = 15
Minimum network latency = 5
Average network latency = 11.341
Maximum network latency = 15
Slowest packet = 7362
Minimum flit latency = 5
Average flit latency = 11.3431
Maximum flit latency = 15
Slowest flit = 7362
Minimum fragmentation = 0
Average fragmentation = 0
Maximum fragmentation = 0
Minimum injected packet rate = 0.003 (at node 101)
Average injected packet rate = 0.00988367
Maximum injected packet rate = 0.02 (at node 342)
Minimum accepted packet rate = 0.001 (at node 290)
Average accepted packet rate = 0.00993469
Maximum accepted packet rate = 0.02 (at node 271)
Minimum injected flit rate = 0.003 (at node 101)
Average injected flit rate = 0.00988367
Maximum injected flit rate = 0.02 (at node 342)
Minimum accepted flit rate = 0.001 (at node 290)
Average accepted flit rate = 0.00993469
Maximum accepted flit rate = 0.02 (at node 271)
Average injected packet length = 1
Average accepted packet length = 1
Total in-flight flits = 57 (57 measured)
latency change    = 0.00301692
throughput change = 0.00328677
1
Class 0:
Minimum packet latency = 5
Average packet latency = 11.3467
Maximum packet latency = 15
Minimum network latency = 5
Average network latency = 11.3467
Maximum network latency = 15
Slowest packet = 7362
Minimum flit latency = 5
Average flit latency = 11.348
Maximum flit latency = 15
Slowest flit = 7362
Minimum fragmentation = 0
Average fragmentation = 0
Maximum fragmentation = 0
Minimum injected packet rate = 0.004 (at node 165)
Average injected packet rate = 0.00993741
Maximum injected packet rate = 0.0193333 (at node 18)
Minimum accepted packet rate = 0.00266667 (at node 290)
Average accepted packet rate = 0.00997279
Maximum accepted packet rate = 0.018 (at node 271)
Minimum injected flit rate = 0.004 (at node 165)
Average injected flit rate = 0.00993741
Maximum injected flit rate = 0.0193333 (at node 18)
Minimum accepted flit rate = 0.00266667 (at node 290)
Average accepted flit rate = 0.00997279
Maximum accepted flit rate = 0.018 (at node 271)
Average injected packet length = 1
Average accepted packet length = 1
Total in-flight flits = 56 (56 measured)
latency change    = 0.000504266
throughput change = 0.00381992
Draining all recorded packets ...
Draining remaining packets ...
Time taken is 3032 cycles
====== Traffic class 0 ======
Overall minimum packet latency = 5 (1 samples)
Overall average packet latency = 11.3465 (1 samples)
Overall maximum packet latency = 15 (1 samples)
Overall minimum network latency = 5 (1 samples)
Overall average network latency = 11.3465 (1 samples)
Overall maximum network latency = 15 (1 samples)
Overall minimum flit latency = 5 (1 samples)
Overall average flit latency = 11.3466 (1 samples)
Overall maximum flit latency = 15 (1 samples)
Overall minimum fragmentation = 0 (1 samples)
Overall average fragmentation = 0 (1 samples)
Overall maximum fragmentation = 0 (1 samples)
Overall minimum injected packet rate = 0.004 (1 samples)
Overall average injected packet rate = 0.00993741 (1 samples)
Overall maximum injected packet rate = 0.0193333 (1 samples)
Overall minimum accepted packet rate = 0.00266667 (1 samples)
Overall average accepted packet rate = 0.00997279 (1 samples)
Overall maximum accepted packet rate = 0.018 (1 samples)
Overall minimum injected flit rate = 0.004 (1 samples)
Overall average injected flit rate = 0.00993741 (1 samples)
Overall maximum injected flit rate = 0.0193333 (1 samples)
Overall minimum accepted flit rate = 0.00266667 (1 samples)
Overall average accepted flit rate = 0.00997279 (1 samples)
Overall maximum accepted flit rate = 0.018 (1 samples)
Overall average injected packet size = 1 (1 samples)
Overall average accepted packet size = 1 (1 samples)
Overall average hops = 3.11008 (1 samples)
Total run time 2.7532
