BEGIN Configuration File: ./RAND.conf
injection_rate = 0.01;
traffic = uniform;
use_size_power_of_two = no;
routing_function = min;
vc_buf_size = 16;
network_file = RAND_N.578.25.11.bsconf;
load_routing_file = no;
routing_table_file = RAND_N.578.25.11.bsconf.route;
topology = anynet;
//use_noc_latency = 0;
//hold_switch_for_packet=0;

k = 1;

packet_size  = 1;
num_vcs      = 4;
vc_allocator = separable_input_first; 
sw_allocator = separable_input_first;

alloc_iters   = 1;
sample_period = 500;

wait_for_tail_credit = 0;
use_read_write       = 0;

credit_delay   = 2;
routing_delay  = 0;
vc_alloc_delay = 1;
sw_alloc_delay = 1;
st_final_delay = 1;

input_speedup     = 1;
output_speedup    = 1;
internal_speedup  = 2.0;

warmup_periods = 3;
sim_count      = 1;

priority = none;
injection_rate_uses_flits=1;

END Configuration File: ./RAND.conf
========================Network File Parsed=================
******************node listing**********************

****************router to node listing*************

*****************router to router listing************
Number of nodes: 6358
Number of routers: 578
==========================Node to Router =====================
==========================Router to Router =====================
========================== Build Routing table  =====================
Start searching...Routing table for router 0 done  |
Start searching...Routing table for router 1 done  |
Start searching...Routing table for router 2 done  |
Start searching...Routing table for router 3 done  |
Start searching...Routing table for router 4 done  |
Start searching...Routing table for router 5 done  |
Start searching...Routing table for router 6 done  |
Start searching...Routing table for router 7 done  |
Start searching...Routing table for router 8 done  |
Start searching...Routing table for router 9 done  |
Start searching...Routing table for router 10 done  |
Start searching...Routing table for router 11 done  |
Start searching...Routing table for router 12 done  |
Start searching...Routing table for router 13 done  |
Start searching...Routing table for router 14 done  |
Start searching...Routing table for router 15 done  |
Start searching...Routing table for router 16 done  |
Start searching...Routing table for router 17 done  |
Start searching...Routing table for router 18 done  |
Start searching...Routing table for router 19 done  |
Start searching...Routing table for router 20 done  |
Start searching...Routing table for router 21 done  |
Start searching...Routing table for router 22 done  |
Start searching...Routing table for router 23 done  |
Start searching...Routing table for router 24 done  |
Start searching...Routing table for router 25 done  |
Start searching...Routing table for router 26 done  |
Start searching...Routing table for router 27 done  |
Start searching...Routing table for router 28 done  |
Start searching...Routing table for router 29 done  |
Start searching...Routing table for router 30 done  |
Start searching...Routing table for router 31 done  |
Start searching...Routing table for router 32 done  |
Start searching...Routing table for router 33 done  |
Start searching...Routing table for router 34 done  |
Start searching...Routing table for router 35 done  |
Start searching...Routing table for router 36 done  |
Start searching...Routing table for router 37 done  |
Start searching...Routing table for router 38 done  |
Start searching...Routing table for router 39 done  |
Start searching...Routing table for router 40 done  |
Start searching...Routing table for router 41 done  |
Start searching...Routing table for router 42 done  |
Start searching...Routing table for router 43 done  |
Start searching...Routing table for router 44 done  |
Start searching...Routing table for router 45 done  |
Start searching...Routing table for router 46 done  |
Start searching...Routing table for router 47 done  |
Start searching...Routing table for router 48 done  |
Start searching...Routing table for router 49 done  |
Start searching...Routing table for router 50 done  |
Start searching...Routing table for router 51 done  |
Start searching...Routing table for router 52 done  |
Start searching...Routing table for router 53 done  |
Start searching...Routing table for router 54 done  |
Start searching...Routing table for router 55 done  |
Start searching...Routing table for router 56 done  |
Start searching...Routing table for router 57 done  |
Start searching...Routing table for router 58 done  |
Start searching...Routing table for router 59 done  |
Start searching...Routing table for router 60 done  |
Start searching...Routing table for router 61 done  |
Start searching...Routing table for router 62 done  |
Start searching...Routing table for router 63 done  |
Start searching...Routing table for router 64 done  |
Start searching...Routing table for router 65 done  |
Start searching...Routing table for router 66 done  |
Start searching...Routing table for router 67 done  |
Start searching...Routing table for router 68 done  |
Start searching...Routing table for router 69 done  |
Start searching...Routing table for router 70 done  |
Start searching...Routing table for router 71 done  |
Start searching...Routing table for router 72 done  |
Start searching...Routing table for router 73 done  |
Start searching...Routing table for router 74 done  |
Start searching...Routing table for router 75 done  |
Start searching...Routing table for router 76 done  |
Start searching...Routing table for router 77 done  |
Start searching...Routing table for router 78 done  |
Start searching...Routing table for router 79 done  |
Start searching...Routing table for router 80 done  |
Start searching...Routing table for router 81 done  |
Start searching...Routing table for router 82 done  |
Start searching...Routing table for router 83 done  |
Start searching...Routing table for router 84 done  |
Start searching...Routing table for router 85 done  |
Start searching...Routing table for router 86 done  |
Start searching...Routing table for router 87 done  |
Start searching...Routing table for router 88 done  |
Start searching...Routing table for router 89 done  |
Start searching...Routing table for router 90 done  |
Start searching...Routing table for router 91 done  |
Start searching...Routing table for router 92 done  |
Start searching...Routing table for router 93 done  |
Start searching...Routing table for router 94 done  |
Start searching...Routing table for router 95 done  |
Start searching...Routing table for router 96 done  |
Start searching...Routing table for router 97 done  |
Start searching...Routing table for router 98 done  |
Start searching...Routing table for router 99 done  |
Start searching...Routing table for router 100 done  |
Start searching...Routing table for router 101 done  |
Start searching...Routing table for router 102 done  |
Start searching...Routing table for router 103 done  |
Start searching...Routing table for router 104 done  |
Start searching...Routing table for router 105 done  |
Start searching...Routing table for router 106 done  |
Start searching...Routing table for router 107 done  |
Start searching...Routing table for router 108 done  |
Start searching...Routing table for router 109 done  |
Start searching...Routing table for router 110 done  |
Start searching...Routing table for router 111 done  |
Start searching...Routing table for router 112 done  |
Start searching...Routing table for router 113 done  |
Start searching...Routing table for router 114 done  |
Start searching...Routing table for router 115 done  |
Start searching...Routing table for router 116 done  |
Start searching...Routing table for router 117 done  |
Start searching...Routing table for router 118 done  |
Start searching...Routing table for router 119 done  |
Start searching...Routing table for router 120 done  |
Start searching...Routing table for router 121 done  |
Start searching...Routing table for router 122 done  |
Start searching...Routing table for router 123 done  |
Start searching...Routing table for router 124 done  |
Start searching...Routing table for router 125 done  |
Start searching...Routing table for router 126 done  |
Start searching...Routing table for router 127 done  |
Start searching...Routing table for router 128 done  |
Start searching...Routing table for router 129 done  |
Start searching...Routing table for router 130 done  |
Start searching...Routing table for router 131 done  |
Start searching...Routing table for router 132 done  |
Start searching...Routing table for router 133 done  |
Start searching...Routing table for router 134 done  |
Start searching...Routing table for router 135 done  |
Start searching...Routing table for router 136 done  |
Start searching...Routing table for router 137 done  |
Start searching...Routing table for router 138 done  |
Start searching...Routing table for router 139 done  |
Start searching...Routing table for router 140 done  |
Start searching...Routing table for router 141 done  |
Start searching...Routing table for router 142 done  |
Start searching...Routing table for router 143 done  |
Start searching...Routing table for router 144 done  |
Start searching...Routing table for router 145 done  |
Start searching...Routing table for router 146 done  |
Start searching...Routing table for router 147 done  |
Start searching...Routing table for router 148 done  |
Start searching...Routing table for router 149 done  |
Start searching...Routing table for router 150 done  |
Start searching...Routing table for router 151 done  |
Start searching...Routing table for router 152 done  |
Start searching...Routing table for router 153 done  |
Start searching...Routing table for router 154 done  |
Start searching...Routing table for router 155 done  |
Start searching...Routing table for router 156 done  |
Start searching...Routing table for router 157 done  |
Start searching...Routing table for router 158 done  |
Start searching...Routing table for router 159 done  |
Start searching...Routing table for router 160 done  |
Start searching...Routing table for router 161 done  |
Start searching...Routing table for router 162 done  |
Start searching...Routing table for router 163 done  |
Start searching...Routing table for router 164 done  |
Start searching...Routing table for router 165 done  |
Start searching...Routing table for router 166 done  |
Start searching...Routing table for router 167 done  |
Start searching...Routing table for router 168 done  |
Start searching...Routing table for router 169 done  |
Start searching...Routing table for router 170 done  |
Start searching...Routing table for router 171 done  |
Start searching...Routing table for router 172 done  |
Start searching...Routing table for router 173 done  |
Start searching...Routing table for router 174 done  |
Start searching...Routing table for router 175 done  |
Start searching...Routing table for router 176 done  |
Start searching...Routing table for router 177 done  |
Start searching...Routing table for router 178 done  |
Start searching...Routing table for router 179 done  |
Start searching...Routing table for router 180 done  |
Start searching...Routing table for router 181 done  |
Start searching...Routing table for router 182 done  |
Start searching...Routing table for router 183 done  |
Start searching...Routing table for router 184 done  |
Start searching...Routing table for router 185 done  |
Start searching...Routing table for router 186 done  |
Start searching...Routing table for router 187 done  |
Start searching...Routing table for router 188 done  |
Start searching...Routing table for router 189 done  |
Start searching...Routing table for router 190 done  |
Start searching...Routing table for router 191 done  |
Start searching...Routing table for router 192 done  |
Start searching...Routing table for router 193 done  |
Start searching...Routing table for router 194 done  |
Start searching...Routing table for router 195 done  |
Start searching...Routing table for router 196 done  |
Start searching...Routing table for router 197 done  |
Start searching...Routing table for router 198 done  |
Start searching...Routing table for router 199 done  |
Start searching...Routing table for router 200 done  |
Start searching...Routing table for router 201 done  |
Start searching...Routing table for router 202 done  |
Start searching...Routing table for router 203 done  |
Start searching...Routing table for router 204 done  |
Start searching...Routing table for router 205 done  |
Start searching...Routing table for router 206 done  |
Start searching...Routing table for router 207 done  |
Start searching...Routing table for router 208 done  |
Start searching...Routing table for router 209 done  |
Start searching...Routing table for router 210 done  |
Start searching...Routing table for router 211 done  |
Start searching...Routing table for router 212 done  |
Start searching...Routing table for router 213 done  |
Start searching...Routing table for router 214 done  |
Start searching...Routing table for router 215 done  |
Start searching...Routing table for router 216 done  |
Start searching...Routing table for router 217 done  |
Start searching...Routing table for router 218 done  |
Start searching...Routing table for router 219 done  |
Start searching...Routing table for router 220 done  |
Start searching...Routing table for router 221 done  |
Start searching...Routing table for router 222 done  |
Start searching...Routing table for router 223 done  |
Start searching...Routing table for router 224 done  |
Start searching...Routing table for router 225 done  |
Start searching...Routing table for router 226 done  |
Start searching...Routing table for router 227 done  |
Start searching...Routing table for router 228 done  |
Start searching...Routing table for router 229 done  |
Start searching...Routing table for router 230 done  |
Start searching...Routing table for router 231 done  |
Start searching...Routing table for router 232 done  |
Start searching...Routing table for router 233 done  |
Start searching...Routing table for router 234 done  |
Start searching...Routing table for router 235 done  |
Start searching...Routing table for router 236 done  |
Start searching...Routing table for router 237 done  |
Start searching...Routing table for router 238 done  |
Start searching...Routing table for router 239 done  |
Start searching...Routing table for router 240 done  |
Start searching...Routing table for router 241 done  |
Start searching...Routing table for router 242 done  |
Start searching...Routing table for router 243 done  |
Start searching...Routing table for router 244 done  |
Start searching...Routing table for router 245 done  |
Start searching...Routing table for router 246 done  |
Start searching...Routing table for router 247 done  |
Start searching...Routing table for router 248 done  |
Start searching...Routing table for router 249 done  |
Start searching...Routing table for router 250 done  |
Start searching...Routing table for router 251 done  |
Start searching...Routing table for router 252 done  |
Start searching...Routing table for router 253 done  |
Start searching...Routing table for router 254 done  |
Start searching...Routing table for router 255 done  |
Start searching...Routing table for router 256 done  |
Start searching...Routing table for router 257 done  |
Start searching...Routing table for router 258 done  |
Start searching...Routing table for router 259 done  |
Start searching...Routing table for router 260 done  |
Start searching...Routing table for router 261 done  |
Start searching...Routing table for router 262 done  |
Start searching...Routing table for router 263 done  |
Start searching...Routing table for router 264 done  |
Start searching...Routing table for router 265 done  |
Start searching...Routing table for router 266 done  |
Start searching...Routing table for router 267 done  |
Start searching...Routing table for router 268 done  |
Start searching...Routing table for router 269 done  |
Start searching...Routing table for router 270 done  |
Start searching...Routing table for router 271 done  |
Start searching...Routing table for router 272 done  |
Start searching...Routing table for router 273 done  |
Start searching...Routing table for router 274 done  |
Start searching...Routing table for router 275 done  |
Start searching...Routing table for router 276 done  |
Start searching...Routing table for router 277 done  |
Start searching...Routing table for router 278 done  |
Start searching...Routing table for router 279 done  |
Start searching...Routing table for router 280 done  |
Start searching...Routing table for router 281 done  |
Start searching...Routing table for router 282 done  |
Start searching...Routing table for router 283 done  |
Start searching...Routing table for router 284 done  |
Start searching...Routing table for router 285 done  |
Start searching...Routing table for router 286 done  |
Start searching...Routing table for router 287 done  |
Start searching...Routing table for router 288 done  |
Start searching...Routing table for router 289 done  |
Start searching...Routing table for router 290 done  |
Start searching...Routing table for router 291 done  |
Start searching...Routing table for router 292 done  |
Start searching...Routing table for router 293 done  |
Start searching...Routing table for router 294 done  |
Start searching...Routing table for router 295 done  |
Start searching...Routing table for router 296 done  |
Start searching...Routing table for router 297 done  |
Start searching...Routing table for router 298 done  |
Start searching...Routing table for router 299 done  |
Start searching...Routing table for router 300 done  |
Start searching...Routing table for router 301 done  |
Start searching...Routing table for router 302 done  |
Start searching...Routing table for router 303 done  |
Start searching...Routing table for router 304 done  |
Start searching...Routing table for router 305 done  |
Start searching...Routing table for router 306 done  |
Start searching...Routing table for router 307 done  |
Start searching...Routing table for router 308 done  |
Start searching...Routing table for router 309 done  |
Start searching...Routing table for router 310 done  |
Start searching...Routing table for router 311 done  |
Start searching...Routing table for router 312 done  |
Start searching...Routing table for router 313 done  |
Start searching...Routing table for router 314 done  |
Start searching...Routing table for router 315 done  |
Start searching...Routing table for router 316 done  |
Start searching...Routing table for router 317 done  |
Start searching...Routing table for router 318 done  |
Start searching...Routing table for router 319 done  |
Start searching...Routing table for router 320 done  |
Start searching...Routing table for router 321 done  |
Start searching...Routing table for router 322 done  |
Start searching...Routing table for router 323 done  |
Start searching...Routing table for router 324 done  |
Start searching...Routing table for router 325 done  |
Start searching...Routing table for router 326 done  |
Start searching...Routing table for router 327 done  |
Start searching...Routing table for router 328 done  |
Start searching...Routing table for router 329 done  |
Start searching...Routing table for router 330 done  |
Start searching...Routing table for router 331 done  |
Start searching...Routing table for router 332 done  |
Start searching...Routing table for router 333 done  |
Start searching...Routing table for router 334 done  |
Start searching...Routing table for router 335 done  |
Start searching...Routing table for router 336 done  |
Start searching...Routing table for router 337 done  |
Start searching...Routing table for router 338 done  |
Start searching...Routing table for router 339 done  |
Start searching...Routing table for router 340 done  |
Start searching...Routing table for router 341 done  |
Start searching...Routing table for router 342 done  |
Start searching...Routing table for router 343 done  |
Start searching...Routing table for router 344 done  |
Start searching...Routing table for router 345 done  |
Start searching...Routing table for router 346 done  |
Start searching...Routing table for router 347 done  |
Start searching...Routing table for router 348 done  |
Start searching...Routing table for router 349 done  |
Start searching...Routing table for router 350 done  |
Start searching...Routing table for router 351 done  |
Start searching...Routing table for router 352 done  |
Start searching...Routing table for router 353 done  |
Start searching...Routing table for router 354 done  |
Start searching...Routing table for router 355 done  |
Start searching...Routing table for router 356 done  |
Start searching...Routing table for router 357 done  |
Start searching...Routing table for router 358 done  |
Start searching...Routing table for router 359 done  |
Start searching...Routing table for router 360 done  |
Start searching...Routing table for router 361 done  |
Start searching...Routing table for router 362 done  |
Start searching...Routing table for router 363 done  |
Start searching...Routing table for router 364 done  |
Start searching...Routing table for router 365 done  |
Start searching...Routing table for router 366 done  |
Start searching...Routing table for router 367 done  |
Start searching...Routing table for router 368 done  |
Start searching...Routing table for router 369 done  |
Start searching...Routing table for router 370 done  |
Start searching...Routing table for router 371 done  |
Start searching...Routing table for router 372 done  |
Start searching...Routing table for router 373 done  |
Start searching...Routing table for router 374 done  |
Start searching...Routing table for router 375 done  |
Start searching...Routing table for router 376 done  |
Start searching...Routing table for router 377 done  |
Start searching...Routing table for router 378 done  |
Start searching...Routing table for router 379 done  |
Start searching...Routing table for router 380 done  |
Start searching...Routing table for router 381 done  |
Start searching...Routing table for router 382 done  |
Start searching...Routing table for router 383 done  |
Start searching...Routing table for router 384 done  |
Start searching...Routing table for router 385 done  |
Start searching...Routing table for router 386 done  |
Start searching...Routing table for router 387 done  |
Start searching...Routing table for router 388 done  |
Start searching...Routing table for router 389 done  |
Start searching...Routing table for router 390 done  |
Start searching...Routing table for router 391 done  |
Start searching...Routing table for router 392 done  |
Start searching...Routing table for router 393 done  |
Start searching...Routing table for router 394 done  |
Start searching...Routing table for router 395 done  |
Start searching...Routing table for router 396 done  |
Start searching...Routing table for router 397 done  |
Start searching...Routing table for router 398 done  |
Start searching...Routing table for router 399 done  |
Start searching...Routing table for router 400 done  |
Start searching...Routing table for router 401 done  |
Start searching...Routing table for router 402 done  |
Start searching...Routing table for router 403 done  |
Start searching...Routing table for router 404 done  |
Start searching...Routing table for router 405 done  |
Start searching...Routing table for router 406 done  |
Start searching...Routing table for router 407 done  |
Start searching...Routing table for router 408 done  |
Start searching...Routing table for router 409 done  |
Start searching...Routing table for router 410 done  |
Start searching...Routing table for router 411 done  |
Start searching...Routing table for router 412 done  |
Start searching...Routing table for router 413 done  |
Start searching...Routing table for router 414 done  |
Start searching...Routing table for router 415 done  |
Start searching...Routing table for router 416 done  |
Start searching...Routing table for router 417 done  |
Start searching...Routing table for router 418 done  |
Start searching...Routing table for router 419 done  |
Start searching...Routing table for router 420 done  |
Start searching...Routing table for router 421 done  |
Start searching...Routing table for router 422 done  |
Start searching...Routing table for router 423 done  |
Start searching...Routing table for router 424 done  |
Start searching...Routing table for router 425 done  |
Start searching...Routing table for router 426 done  |
Start searching...Routing table for router 427 done  |
Start searching...Routing table for router 428 done  |
Start searching...Routing table for router 429 done  |
Start searching...Routing table for router 430 done  |
Start searching...Routing table for router 431 done  |
Start searching...Routing table for router 432 done  |
Start searching...Routing table for router 433 done  |
Start searching...Routing table for router 434 done  |
Start searching...Routing table for router 435 done  |
Start searching...Routing table for router 436 done  |
Start searching...Routing table for router 437 done  |
Start searching...Routing table for router 438 done  |
Start searching...Routing table for router 439 done  |
Start searching...Routing table for router 440 done  |
Start searching...Routing table for router 441 done  |
Start searching...Routing table for router 442 done  |
Start searching...Routing table for router 443 done  |
Start searching...Routing table for router 444 done  |
Start searching...Routing table for router 445 done  |
Start searching...Routing table for router 446 done  |
Start searching...Routing table for router 447 done  |
Start searching...Routing table for router 448 done  |
Start searching...Routing table for router 449 done  |
Start searching...Routing table for router 450 done  |
Start searching...Routing table for router 451 done  |
Start searching...Routing table for router 452 done  |
Start searching...Routing table for router 453 done  |
Start searching...Routing table for router 454 done  |
Start searching...Routing table for router 455 done  |
Start searching...Routing table for router 456 done  |
Start searching...Routing table for router 457 done  |
Start searching...Routing table for router 458 done  |
Start searching...Routing table for router 459 done  |
Start searching...Routing table for router 460 done  |
Start searching...Routing table for router 461 done  |
Start searching...Routing table for router 462 done  |
Start searching...Routing table for router 463 done  |
Start searching...Routing table for router 464 done  |
Start searching...Routing table for router 465 done  |
Start searching...Routing table for router 466 done  |
Start searching...Routing table for router 467 done  |
Start searching...Routing table for router 468 done  |
Start searching...Routing table for router 469 done  |
Start searching...Routing table for router 470 done  |
Start searching...Routing table for router 471 done  |
Start searching...Routing table for router 472 done  |
Start searching...Routing table for router 473 done  |
Start searching...Routing table for router 474 done  |
Start searching...Routing table for router 475 done  |
Start searching...Routing table for router 476 done  |
Start searching...Routing table for router 477 done  |
Start searching...Routing table for router 478 done  |
Start searching...Routing table for router 479 done  |
Start searching...Routing table for router 480 done  |
Start searching...Routing table for router 481 done  |
Start searching...Routing table for router 482 done  |
Start searching...Routing table for router 483 done  |
Start searching...Routing table for router 484 done  |
Start searching...Routing table for router 485 done  |
Start searching...Routing table for router 486 done  |
Start searching...Routing table for router 487 done  |
Start searching...Routing table for router 488 done  |
Start searching...Routing table for router 489 done  |
Start searching...Routing table for router 490 done  |
Start searching...Routing table for router 491 done  |
Start searching...Routing table for router 492 done  |
Start searching...Routing table for router 493 done  |
Start searching...Routing table for router 494 done  |
Start searching...Routing table for router 495 done  |
Start searching...Routing table for router 496 done  |
Start searching...Routing table for router 497 done  |
Start searching...Routing table for router 498 done  |
Start searching...Routing table for router 499 done  |
Start searching...Routing table for router 500 done  |
Start searching...Routing table for router 501 done  |
Start searching...Routing table for router 502 done  |
Start searching...Routing table for router 503 done  |
Start searching...Routing table for router 504 done  |
Start searching...Routing table for router 505 done  |
Start searching...Routing table for router 506 done  |
Start searching...Routing table for router 507 done  |
Start searching...Routing table for router 508 done  |
Start searching...Routing table for router 509 done  |
Start searching...Routing table for router 510 done  |
Start searching...Routing table for router 511 done  |
Start searching...Routing table for router 512 done  |
Start searching...Routing table for router 513 done  |
Start searching...Routing table for router 514 done  |
Start searching...Routing table for router 515 done  |
Start searching...Routing table for router 516 done  |
Start searching...Routing table for router 517 done  |
Start searching...Routing table for router 518 done  |
Start searching...Routing table for router 519 done  |
Start searching...Routing table for router 520 done  |
Start searching...Routing table for router 521 done  |
Start searching...Routing table for router 522 done  |
Start searching...Routing table for router 523 done  |
Start searching...Routing table for router 524 done  |
Start searching...Routing table for router 525 done  |
Start searching...Routing table for router 526 done  |
Start searching...Routing table for router 527 done  |
Start searching...Routing table for router 528 done  |
Start searching...Routing table for router 529 done  |
Start searching...Routing table for router 530 done  |
Start searching...Routing table for router 531 done  |
Start searching...Routing table for router 532 done  |
Start searching...Routing table for router 533 done  |
Start searching...Routing table for router 534 done  |
Start searching...Routing table for router 535 done  |
Start searching...Routing table for router 536 done  |
Start searching...Routing table for router 537 done  |
Start searching...Routing table for router 538 done  |
Start searching...Routing table for router 539 done  |
Start searching...Routing table for router 540 done  |
Start searching...Routing table for router 541 done  |
Start searching...Routing table for router 542 done  |
Start searching...Routing table for router 543 done  |
Start searching...Routing table for router 544 done  |
Start searching...Routing table for router 545 done  |
Start searching...Routing table for router 546 done  |
Start searching...Routing table for router 547 done  |
Start searching...Routing table for router 548 done  |
Start searching...Routing table for router 549 done  |
Start searching...Routing table for router 550 done  |
Start searching...Routing table for router 551 done  |
Start searching...Routing table for router 552 done  |
Start searching...Routing table for router 553 done  |
Start searching...Routing table for router 554 done  |
Start searching...Routing table for router 555 done  |
Start searching...Routing table for router 556 done  |
Start searching...Routing table for router 557 done  |
Start searching...Routing table for router 558 done  |
Start searching...Routing table for router 559 done  |
Start searching...Routing table for router 560 done  |
Start searching...Routing table for router 561 done  |
Start searching...Routing table for router 562 done  |
Start searching...Routing table for router 563 done  |
Start searching...Routing table for router 564 done  |
Start searching...Routing table for router 565 done  |
Start searching...Routing table for router 566 done  |
Start searching...Routing table for router 567 done  |
Start searching...Routing table for router 568 done  |
Start searching...Routing table for router 569 done  |
Start searching...Routing table for router 570 done  |
Start searching...Routing table for router 571 done  |
Start searching...Routing table for router 572 done  |
Start searching...Routing table for router 573 done  |
Start searching...Routing table for router 574 done  |
Start searching...Routing table for router 575 done  |
Start searching...Routing table for router 576 done  |
Start searching...Routing table for router 577 done  |

========================== Build Routing table done  =====================

Saving routing table...
========================== Building Bad traffic pattern, type 3... ============================
>>>>>>>>> Routers selected for traffic: 174, 34
Repeating (no neighbors)...>>>>>>>>> Routers selected for traffic: 432, 166
Repeating (no neighbors)...>>>>>>>>> Routers selected for traffic: 95, 478
Repeating (no neighbors)...>>>>>>>>> Routers selected for traffic: 264, 44
Repeating (no neighbors)...>>>>>>>>> Routers selected for traffic: 338, 39
Repeating (no neighbors)...>>>>>>>>> Routers selected for traffic: 455, 362
Repeating (no neighbors)...>>>>>>>>> Routers selected for traffic: 161, 436
Repeating (no neighbors)...>>>>>>>>> Routers selected for traffic: 542, 108
Repeating (no neighbors)...>>>>>>>>> Routers selected for traffic: 471, 101
Repeating (no neighbors)...>>>>>>>>> Routers selected for traffic: 577, 504
Repeating (no neighbors)...>>>>>>>>> Routers selected for traffic: 67, 455
Repeating (no neighbors)...>>>>>>>>> Routers selected for traffic: 96, 35
Repeating (no neighbors)...>>>>>>>>> Routers selected for traffic: 488, 401
Repeating (no neighbors)...>>>>>>>>> Routers selected for traffic: 225, 358
Repeating (no neighbors)...>>>>>>>>> Routers selected for traffic: 544, 218
Repeating (no neighbors)...>>>>>>>>> Routers selected for traffic: 99, 141
Repeating (no neighbors)...>>>>>>>>> Routers selected for traffic: 464, 165
Repeating (no neighbors)...>>>>>>>>> Routers selected for traffic: 307, 193
Repeating (no neighbors)...>>>>>>>>> Routers selected for traffic: 65, 205
Repeating (no neighbors)...>>>>>>>>> Routers selected for traffic: 449, 404
Repeating (no neighbors)...>>>>>>>>> Routers selected for traffic: 245, 326
Repeating (no neighbors)...>>>>>>>>> Routers selected for traffic: 188, 406
Repeating (no neighbors)...>>>>>>>>> Routers selected for traffic: 396, 364
Repeating (no neighbors)...>>>>>>>>> Routers selected for traffic: 148, 289
Repeating (no neighbors)...>>>>>>>>> Routers selected for traffic: 465, 147
Repeating (no neighbors)...>>>>>>>>> Routers selected for traffic: 215, 167
Repeating (no neighbors)...>>>>>>>>> Routers selected for traffic: 236, 523
Repeating (no neighbors)...>>>>>>>>> Routers selected for traffic: 202, 146
Repeating (no neighbors)...>>>>>>>>> Routers selected for traffic: 559, 62
Repeating (no neighbors)...>>>>>>>>> Routers selected for traffic: 505, 525
Repeating (no neighbors)...>>>>>>>>> Routers selected for traffic: 492, 26
Repeating (no neighbors)...>>>>>>>>> Routers selected for traffic: 88, 378
Repeating (no neighbors)...>>>>>>>>> Routers selected for traffic: 191, 30
Repeating (no neighbors)...>>>>>>>>> Routers selected for traffic: 205, 256
Repeating (no neighbors)...>>>>>>>>> Routers selected for traffic: 447, 76
********************* SUCCESS: selected 447 and 76
>>>>>>>>> Routers selected for traffic: 188, 568
Repeating (no neighbors)...>>>>>>>>> Routers selected for traffic: 140, 400
Repeating (no neighbors)...>>>>>>>>> Routers selected for traffic: 538, 133
Repeating (no neighbors)...>>>>>>>>> Routers selected for traffic: 483, 369
Repeating (no neighbors)...>>>>>>>>> Routers selected for traffic: 253, 133
Repeating (no neighbors)...>>>>>>>>> Routers selected for traffic: 175, 17
Repeating (no neighbors)...>>>>>>>>> Routers selected for traffic: 228, 213
Repeating (no neighbors)...>>>>>>>>> Routers selected for traffic: 194, 220
Repeating (no neighbors)...>>>>>>>>> Routers selected for traffic: 470, 410
Repeating (no neighbors)...>>>>>>>>> Routers selected for traffic: 570, 69
Repeating (no neighbors)...>>>>>>>>> Routers selected for traffic: 392, 551
Repeating (no neighbors)...>>>>>>>>> Routers selected for traffic: 283, 408
Repeating (no neighbors)...>>>>>>>>> Routers selected for traffic: 126, 330
Repeating (no neighbors)...>>>>>>>>> Routers selected for traffic: 311, 131
Repeating (no neighbors)...>>>>>>>>> Routers selected for traffic: 327, 334
Repeating (no neighbors)...>>>>>>>>> Routers selected for traffic: 106, 525
Repeating (used)...>>>>>>>>> Routers selected for traffic: 372, 141
Repeating (no neighbors)...>>>>>>>>> Routers selected for traffic: 160, 197
Repeating (no neighbors)...>>>>>>>>> Routers selected for traffic: 92, 509
Repeating (no neighbors)...>>>>>>>>> Routers selected for traffic: 336, 218
Repeating (no neighbors)...>>>>>>>>> Routers selected for traffic: 496, 172
Repeating (no neighbors)...>>>>>>>>> Routers selected for traffic: 319, 209
Repeating (no neighbors)...>>>>>>>>> Routers selected for traffic: 419, 339
Repeating (no neighbors)...>>>>>>>>> Routers selected for traffic: 349, 513
Repeating (no neighbors)...>>>>>>>>> Routers selected for traffic: 32, 346
Repeating (no neighbors)...>>>>>>>>> Routers selected for traffic: 280, 94
Repeating (no neighbors)...>>>>>>>>> Routers selected for traffic: 403, 285
Repeating (no neighbors)...>>>>>>>>> Routers selected for traffic: 350, 473
Repeating (used 2)...>>>>>>>>> Routers selected for traffic: 573, 395
Repeating (no neighbors)...>>>>>>>>> Routers selected for traffic: 347, 549
Repeating (no neighbors)...>>>>>>>>> Routers selected for traffic: 207, 530
Repeating (no neighbors)...>>>>>>>>> Routers selected for traffic: 287, 444
Repeating (no neighbors)...>>>>>>>>> Routers selected for traffic: 400, 329
Repeating (no neighbors)...>>>>>>>>> Routers selected for traffic: 136, 435
Repeating (no neighbors)...>>>>>>>>> Routers selected for traffic: 384, 460
Repeating (no neighbors)...>>>>>>>>> Routers selected for traffic: 572, 330
Repeating (no neighbors)...>>>>>>>>> Routers selected for traffic: 187, 61
Repeating (no neighbors)...>>>>>>>>> Routers selected for traffic: 306, 51
Repeating (no neighbors)...>>>>>>>>> Routers selected for traffic: 179, 527
Repeating (no neighbors)...>>>>>>>>> Routers selected for traffic: 563, 187
Repeating (no neighbors)...>>>>>>>>> Routers selected for traffic: 40, 373
Repeating (no neighbors)...>>>>>>>>> Routers selected for traffic: 554, 284
Repeating (no neighbors)...>>>>>>>>> Routers selected for traffic: 67, 78
Repeating (no neighbors)...>>>>>>>>> Routers selected for traffic: 269, 129
Repeating (no neighbors)...>>>>>>>>> Routers selected for traffic: 534, 104
Repeating (no neighbors)...>>>>>>>>> Routers selected for traffic: 96, 165
Repeating (no neighbors)...>>>>>>>>> Routers selected for traffic: 121, 385
Repeating (no neighbors)...>>>>>>>>> Routers selected for traffic: 93, 517
Repeating (no neighbors)...>>>>>>>>> Routers selected for traffic: 206, 284
Repeating (no neighbors)...>>>>>>>>> Routers selected for traffic: 436, 72
Repeating (no neighbors)...>>>>>>>>> Routers selected for traffic: 171, 430
Repeating (no neighbors)...>>>>>>>>> Routers selected for traffic: 405, 413
Repeating (no neighbors)...>>>>>>>>> Routers selected for traffic: 490, 140
Repeating (no neighbors)...>>>>>>>>> Routers selected for traffic: 464, 156
Repeating (no neighbors)...>>>>>>>>> Routers selected for traffic: 150, 512
Repeating (used)...>>>>>>>>> Routers selected for traffic: 484, 203
Repeating (no neighbors)...>>>>>>>>> Routers selected for traffic: 416, 93
Repeating (no neighbors)...>>>>>>>>> Routers selected for traffic: 421, 249
Repeating (no neighbors)...>>>>>>>>> Routers selected for traffic: 283, 132
Repeating (no neighbors)...>>>>>>>>> Routers selected for traffic: 325, 569
Repeating (no neighbors)...>>>>>>>>> Routers selected for traffic: 380, 140
Repeating (no neighbors)...>>>>>>>>> Routers selected for traffic: 173, 409
Repeating (no neighbors)...>>>>>>>>> Routers selected for traffic: 577, 23
Repeating (no neighbors)...>>>>>>>>> Routers selected for traffic: 145, 78
Repeating (no neighbors)...>>>>>>>>> Routers selected for traffic: 572, 178
Repeating (no neighbors)...>>>>>>>>> Routers selected for traffic: 270, 226
Repeating (no neighbors)...>>>>>>>>> Routers selected for traffic: 108, 272
Repeating (no neighbors)...>>>>>>>>> Routers selected for traffic: 445, 213
Repeating (no neighbors)...>>>>>>>>> Routers selected for traffic: 194, 463
Repeating (used)...>>>>>>>>> Routers selected for traffic: 11, 441
Repeating (no neighbors)...>>>>>>>>> Routers selected for traffic: 449, 433
Repeating (no neighbors)...>>>>>>>>> Routers selected for traffic: 371, 247
Repeating (no neighbors)...>>>>>>>>> Routers selected for traffic: 85, 339
Repeating (no neighbors)...>>>>>>>>> Routers selected for traffic: 406, 119
Repeating (no neighbors)...>>>>>>>>> Routers selected for traffic: 309, 460
Repeating (no neighbors)...>>>>>>>>> Routers selected for traffic: 500, 53
Repeating (no neighbors)...>>>>>>>>> Routers selected for traffic: 535, 359
Repeating (used)...>>>>>>>>> Routers selected for traffic: 345, 379
Repeating (no neighbors)...>>>>>>>>> Routers selected for traffic: 469, 306
Repeating (no neighbors)...>>>>>>>>> Routers selected for traffic: 328, 156
Repeating (no neighbors)...>>>>>>>>> Routers selected for traffic: 168, 575
Repeating (no neighbors)...>>>>>>>>> Routers selected for traffic: 297, 467
Repeating (no neighbors)...>>>>>>>>> Routers selected for traffic: 395, 391
Repeating (no neighbors)...>>>>>>>>> Routers selected for traffic: 315, 280
Repeating (no neighbors)...>>>>>>>>> Routers selected for traffic: 109, 444
Repeating (no neighbors)...>>>>>>>>> Routers selected for traffic: 576, 178
Repeating (no neighbors)...>>>>>>>>> Routers selected for traffic: 241, 187
Repeating (no neighbors)...>>>>>>>>> Routers selected for traffic: 40, 87
Repeating (no neighbors)...>>>>>>>>> Routers selected for traffic: 36, 229
Repeating (no neighbors)...>>>>>>>>> Routers selected for traffic: 101, 408
Repeating (no neighbors)...>>>>>>>>> Routers selected for traffic: 524, 53
Repeating (no neighbors)...>>>>>>>>> Routers selected for traffic: 376, 328
Repeating (no neighbors)...>>>>>>>>> Routers selected for traffic: 358, 167
Repeating (no neighbors)...>>>>>>>>> Routers selected for traffic: 155, 252
Repeating (no neighbors)...>>>>>>>>> Routers selected for traffic: 484, 477
Repeating (no neighbors)...>>>>>>>>> Routers selected for traffic: 412, 67
Repeating (no neighbors)...>>>>>>>>> Routers selected for traffic: 490, 139
Repeating (no neighbors)...>>>>>>>>> Routers selected for traffic: 550, 307
Repeating (no neighbors)...>>>>>>>>> Routers selected for traffic: 542, 289
Repeating (no neighbors)...>>>>>>>>> Routers selected for traffic: 6, 68
Repeating (used)...>>>>>>>>> Routers selected for traffic: 487, 292
Repeating (no neighbors)...>>>>>>>>> Routers selected for traffic: 10, 507
Repeating (no neighbors)...>>>>>>>>> Routers selected for traffic: 522, 165
Repeating (no neighbors)...>>>>>>>>> Routers selected for traffic: 57, 130
Repeating (no neighbors)...>>>>>>>>> Routers selected for traffic: 14, 51
Repeating (no neighbors)...>>>>>>>>> Routers selected for traffic: 10, 63
Repeating (no neighbors)...>>>>>>>>> Routers selected for traffic: 85, 226
Repeating (no neighbors)...>>>>>>>>> Routers selected for traffic: 301, 536
Repeating (no neighbors)...>>>>>>>>> Routers selected for traffic: 176, 0
Repeating (no neighbors)...>>>>>>>>> Routers selected for traffic: 67, 228
Repeating (no neighbors)...>>>>>>>>> Routers selected for traffic: 2, 321
Repeating (no neighbors)...>>>>>>>>> Routers selected for traffic: 415, 272
Repeating (no neighbors)...>>>>>>>>> Routers selected for traffic: 333, 130
Repeating (no neighbors)...>>>>>>>>> Routers selected for traffic: 136, 542
Repeating (no neighbors)...>>>>>>>>> Routers selected for traffic: 205, 380
Repeating (no neighbors)...>>>>>>>>> Routers selected for traffic: 166, 14
Repeating (no neighbors)...>>>>>>>>> Routers selected for traffic: 577, 80
Repeating (no neighbors)...>>>>>>>>> Routers selected for traffic: 521, 429
Repeating (no neighbors)...>>>>>>>>> Routers selected for traffic: 232, 569
Repeating (no neighbors)...>>>>>>>>> Routers selected for traffic: 547, 157
Repeating (no neighbors)...>>>>>>>>> Routers selected for traffic: 526, 464
Repeating (no neighbors)...>>>>>>>>> Routers selected for traffic: 123, 27
Repeating (no neighbors)...>>>>>>>>> Routers selected for traffic: 13, 319
Repeating (no neighbors)...>>>>>>>>> Routers selected for traffic: 467, 94
Repeating (no neighbors)...>>>>>>>>> Routers selected for traffic: 319, 437
Repeating (no neighbors)...>>>>>>>>> Routers selected for traffic: 305, 323
Repeating (no neighbors)...>>>>>>>>> Routers selected for traffic: 195, 152
Repeating (no neighbors)...>>>>>>>>> Routers selected for traffic: 13, 517
Repeating (no neighbors)...>>>>>>>>> Routers selected for traffic: 264, 51
Repeating (no neighbors)...>>>>>>>>> Routers selected for traffic: 479, 366
Repeating (no neighbors)...>>>>>>>>> Routers selected for traffic: 422, 542
Repeating (no neighbors)...>>>>>>>>> Routers selected for traffic: 377, 330
Repeating (no neighbors)...>>>>>>>>> Routers selected for traffic: 36, 234
Repeating (no neighbors)...>>>>>>>>> Routers selected for traffic: 192, 177
Repeating (no neighbors)...>>>>>>>>> Routers selected for traffic: 224, 66
Repeating (no neighbors)...>>>>>>>>> Routers selected for traffic: 231, 79
Repeating (no neighbors)...>>>>>>>>> Routers selected for traffic: 526, 331
Repeating (no neighbors)...>>>>>>>>> Routers selected for traffic: 99, 534
Repeating (no neighbors)...>>>>>>>>> Routers selected for traffic: 81, 559
Repeating (no neighbors)...>>>>>>>>> Routers selected for traffic: 45, 303
Repeating (no neighbors)...>>>>>>>>> Routers selected for traffic: 421, 263
Repeating (no neighbors)...>>>>>>>>> Routers selected for traffic: 51, 28
Repeating (no neighbors)...>>>>>>>>> Routers selected for traffic: 397, 544
Repeating (no neighbors)...>>>>>>>>> Routers selected for traffic: 450, 564
Repeating (no neighbors)...>>>>>>>>> Routers selected for traffic: 13, 265
Repeating (no neighbors)...>>>>>>>>> Routers selected for traffic: 348, 431
Repeating (no neighbors)...>>>>>>>>> Routers selected for traffic: 231, 59
Repeating (no neighbors)...>>>>>>>>> Routers selected for traffic: 101, 261
Repeating (no neighbors)...>>>>>>>>> Routers selected for traffic: 280, 280
Repeating (the same)...>>>>>>>>> Routers selected for traffic: 331, 403
Repeating (no neighbors)...>>>>>>>>> Routers selected for traffic: 334, 551
Repeating (no neighbors)...>>>>>>>>> Routers selected for traffic: 469, 203
Repeating (no neighbors)...>>>>>>>>> Routers selected for traffic: 226, 471
Repeating (no neighbors)...>>>>>>>>> Routers selected for traffic: 160, 208
Repeating (no neighbors)...>>>>>>>>> Routers selected for traffic: 455, 109
Repeating (no neighbors)...>>>>>>>>> Routers selected for traffic: 496, 215
Repeating (no neighbors)...>>>>>>>>> Routers selected for traffic: 360, 544
Repeating (no neighbors)...>>>>>>>>> Routers selected for traffic: 148, 91
Repeating (no neighbors)...>>>>>>>>> Routers selected for traffic: 419, 12
Repeating (no neighbors)...>>>>>>>>> Routers selected for traffic: 78, 429
Repeating (no neighbors)...>>>>>>>>> Routers selected for traffic: 273, 325
Repeating (no neighbors)...>>>>>>>>> Routers selected for traffic: 205, 400
Repeating (no neighbors)...>>>>>>>>> Routers selected for traffic: 380, 289
Repeating (no neighbors)...>>>>>>>>> Routers selected for traffic: 563, 563
Repeating (the same)...>>>>>>>>> Routers selected for traffic: 561, 316
Repeating (no neighbors)...>>>>>>>>> Routers selected for traffic: 387, 238
Repeating (no neighbors)...>>>>>>>>> Routers selected for traffic: 210, 199
Repeating (no neighbors)...>>>>>>>>> Routers selected for traffic: 421, 414
Repeating (no neighbors)...>>>>>>>>> Routers selected for traffic: 89, 478
Repeating (no neighbors)...>>>>>>>>> Routers selected for traffic: 522, 443
Repeating (no neighbors)...>>>>>>>>> Routers selected for traffic: 576, 440
Repeating (used)...>>>>>>>>> Routers selected for traffic: 507, 229
Repeating (no neighbors)...>>>>>>>>> Routers selected for traffic: 533, 144
Repeating (no neighbors)...>>>>>>>>> Routers selected for traffic: 146, 577
Repeating (no neighbors)...>>>>>>>>> Routers selected for traffic: 492, 32
Repeating (no neighbors)...>>>>>>>>> Routers selected for traffic: 212, 536
Repeating (no neighbors)...>>>>>>>>> Routers selected for traffic: 163, 356
Repeating (no neighbors)...>>>>>>>>> Routers selected for traffic: 572, 65
Repeating (no neighbors)...>>>>>>>>> Routers selected for traffic: 140, 565
Repeating (no neighbors)...>>>>>>>>> Routers selected for traffic: 288, 214
Repeating (no neighbors)...>>>>>>>>> Routers selected for traffic: 234, 98
Repeating (no neighbors)...>>>>>>>>> Routers selected for traffic: 104, 319
Repeating (no neighbors)...>>>>>>>>> Routers selected for traffic: 257, 177
Repeating (no neighbors)...>>>>>>>>> Routers selected for traffic: 457, 503
Repeating (no neighbors)...>>>>>>>>> Routers selected for traffic: 486, 545
Repeating (no neighbors)...>>>>>>>>> Routers selected for traffic: 95, 550
Repeating (no neighbors)...>>>>>>>>> Routers selected for traffic: 394, 296
Repeating (no neighbors)...>>>>>>>>> Routers selected for traffic: 471, 51
Repeating (no neighbors)...>>>>>>>>> Routers selected for traffic: 138, 307
Repeating (no neighbors)...>>>>>>>>> Routers selected for traffic: 47, 43
Repeating (no neighbors)...>>>>>>>>> Routers selected for traffic: 334, 252
Repeating (no neighbors)...>>>>>>>>> Routers selected for traffic: 280, 483
Repeating (no neighbors)...>>>>>>>>> Routers selected for traffic: 296, 276
Repeating (no neighbors)...>>>>>>>>> Routers selected for traffic: 246, 423
Repeating (no neighbors)...>>>>>>>>> Routers selected for traffic: 264, 521
Repeating (no neighbors)...>>>>>>>>> Routers selected for traffic: 326, 192
Repeating (no neighbors)...>>>>>>>>> Routers selected for traffic: 311, 421
Repeating (no neighbors)...>>>>>>>>> Routers selected for traffic: 211, 557
Repeating (no neighbors)...>>>>>>>>> Routers selected for traffic: 4, 363
Repeating (no neighbors)...>>>>>>>>> Routers selected for traffic: 198, 203
Repeating (no neighbors)...>>>>>>>>> Routers selected for traffic: 321, 548
Repeating (no neighbors)...>>>>>>>>> Routers selected for traffic: 175, 413
Repeating (no neighbors)...>>>>>>>>> Routers selected for traffic: 543, 64
Repeating (no neighbors)...>>>>>>>>> Routers selected for traffic: 457, 99
Repeating (no neighbors)...>>>>>>>>> Routers selected for traffic: 367, 210
Repeating (no neighbors)...>>>>>>>>> Routers selected for traffic: 410, 397
Repeating (no neighbors)...>>>>>>>>> Routers selected for traffic: 442, 116
Repeating (no neighbors)...>>>>>>>>> Routers selected for traffic: 573, 170
Repeating (no neighbors)...>>>>>>>>> Routers selected for traffic: 83, 243
Repeating (no neighbors)...>>>>>>>>> Routers selected for traffic: 283, 32
Repeating (no neighbors)...>>>>>>>>> Routers selected for traffic: 186, 28
Repeating (used)...>>>>>>>>> Routers selected for traffic: 386, 551
Repeating (no neighbors)...>>>>>>>>> Routers selected for traffic: 271, 332
Repeating (no neighbors)...>>>>>>>>> Routers selected for traffic: 410, 389
Repeating (no neighbors)...>>>>>>>>> Routers selected for traffic: 145, 329
Repeating (no neighbors)...>>>>>>>>> Routers selected for traffic: 285, 211
Repeating (no neighbors)...>>>>>>>>> Routers selected for traffic: 370, 185
Repeating (no neighbors)...>>>>>>>>> Routers selected for traffic: 339, 530
Repeating (no neighbors)...>>>>>>>>> Routers selected for traffic: 533, 163
Repeating (no neighbors)...>>>>>>>>> Routers selected for traffic: 37, 110
Repeating (no neighbors)...>>>>>>>>> Routers selected for traffic: 53, 504
Repeating (no neighbors)...>>>>>>>>> Routers selected for traffic: 346, 245
Repeating (no neighbors)...>>>>>>>>> Routers selected for traffic: 141, 485
Repeating (no neighbors)...>>>>>>>>> Routers selected for traffic: 70, 460
Repeating (no neighbors)...>>>>>>>>> Routers selected for traffic: 220, 154
Repeating (no neighbors)...>>>>>>>>> Routers selected for traffic: 64, 104
Repeating (no neighbors)...>>>>>>>>> Routers selected for traffic: 185, 434
Repeating (no neighbors)...>>>>>>>>> Routers selected for traffic: 80, 467
Repeating (no neighbors)...>>>>>>>>> Routers selected for traffic: 231, 505
Repeating (no neighbors)...>>>>>>>>> Routers selected for traffic: 307, 356
Repeating (no neighbors)...>>>>>>>>> Routers selected for traffic: 264, 3
Repeating (used)...>>>>>>>>> Routers selected for traffic: 51, 210
Repeating (no neighbors)...>>>>>>>>> Routers selected for traffic: 143, 118
Repeating (no neighbors)...>>>>>>>>> Routers selected for traffic: 270, 256
Repeating (no neighbors)...>>>>>>>>> Routers selected for traffic: 159, 426
Repeating (no neighbors)...>>>>>>>>> Routers selected for traffic: 286, 290
Repeating (no neighbors)...>>>>>>>>> Routers selected for traffic: 133, 171
Repeating (no neighbors)...>>>>>>>>> Routers selected for traffic: 259, 459
Repeating (no neighbors)...>>>>>>>>> Routers selected for traffic: 526, 198
Repeating (no neighbors)...>>>>>>>>> Routers selected for traffic: 103, 144
Repeating (no neighbors)...>>>>>>>>> Routers selected for traffic: 214, 129
Repeating (no neighbors)...>>>>>>>>> Routers selected for traffic: 29, 219
Repeating (no neighbors)...>>>>>>>>> Routers selected for traffic: 114, 424
Repeating (no neighbors)...>>>>>>>>> Routers selected for traffic: 32, 91
Repeating (used)...>>>>>>>>> Routers selected for traffic: 474, 208
Repeating (no neighbors)...>>>>>>>>> Routers selected for traffic: 465, 405
Repeating (no neighbors)...>>>>>>>>> Routers selected for traffic: 0, 140
Repeating (no neighbors)...>>>>>>>>> Routers selected for traffic: 250, 373
Repeating (no neighbors)...>>>>>>>>> Routers selected for traffic: 282, 331
Repeating (no neighbors)...>>>>>>>>> Routers selected for traffic: 318, 277
Repeating (no neighbors)...>>>>>>>>> Routers selected for traffic: 393, 259
Repeating (used)...>>>>>>>>> Routers selected for traffic: 532, 403
Repeating (no neighbors)...>>>>>>>>> Routers selected for traffic: 479, 400
Repeating (no neighbors)...>>>>>>>>> Routers selected for traffic: 484, 278
Repeating (no neighbors)...>>>>>>>>> Routers selected for traffic: 391, 26
Repeating (no neighbors)...>>>>>>>>> Routers selected for traffic: 108, 321
Repeating (no neighbors)...>>>>>>>>> Routers selected for traffic: 178, 248
Repeating (no neighbors)...>>>>>>>>> Routers selected for traffic: 346, 141
Repeating (no neighbors)...>>>>>>>>> Routers selected for traffic: 315, 479
Repeating (no neighbors)...>>>>>>>>> Routers selected for traffic: 90, 366
Repeating (no neighbors)...>>>>>>>>> Routers selected for traffic: 214, 426
Repeating (used)...>>>>>>>>> Routers selected for traffic: 465, 548
Repeating (no neighbors)...>>>>>>>>> Routers selected for traffic: 552, 471
Repeating (no neighbors)...>>>>>>>>> Routers selected for traffic: 222, 423
Repeating (no neighbors)...>>>>>>>>> Routers selected for traffic: 166, 296
Repeating (no neighbors)...>>>>>>>>> Routers selected for traffic: 329, 334
Repeating (no neighbors)...>>>>>>>>> Routers selected for traffic: 129, 511
Repeating (no neighbors)...>>>>>>>>> Routers selected for traffic: 508, 90
Repeating (no neighbors)...>>>>>>>>> Routers selected for traffic: 179, 117
Repeating (no neighbors)...>>>>>>>>> Routers selected for traffic: 558, 546
Repeating (no neighbors)...>>>>>>>>> Routers selected for traffic: 0, 213
Repeating (no neighbors)...>>>>>>>>> Routers selected for traffic: 249, 320
Repeating (no neighbors)...>>>>>>>>> Routers selected for traffic: 71, 503
Repeating (no neighbors)...>>>>>>>>> Routers selected for traffic: 276, 527
Repeating (no neighbors)...>>>>>>>>> Routers selected for traffic: 277, 172
Repeating (no neighbors)...>>>>>>>>> Routers selected for traffic: 504, 317
Repeating (no neighbors)...>>>>>>>>> Routers selected for traffic: 362, 457
Repeating (no neighbors)...>>>>>>>>> Routers selected for traffic: 360, 400
Repeating (no neighbors)...>>>>>>>>> Routers selected for traffic: 346, 45
Repeating (no neighbors)...>>>>>>>>> Routers selected for traffic: 245, 545
Repeating (no neighbors)...>>>>>>>>> Routers selected for traffic: 395, 44
Repeating (no neighbors)...>>>>>>>>> Routers selected for traffic: 303, 492
Repeating (no neighbors)...>>>>>>>>> Routers selected for traffic: 43, 297
Repeating (no neighbors)...>>>>>>>>> Routers selected for traffic: 558, 210
Repeating (no neighbors)...>>>>>>>>> Routers selected for traffic: 389, 37
Repeating (no neighbors)...>>>>>>>>> Routers selected for traffic: 240, 453
Repeating (no neighbors)...>>>>>>>>> Routers selected for traffic: 297, 458
Repeating (no neighbors)...>>>>>>>>> Routers selected for traffic: 201, 414
Repeating (no neighbors)...>>>>>>>>> Routers selected for traffic: 449, 503
Repeating (no neighbors)...>>>>>>>>> Routers selected for traffic: 365, 144
Repeating (no neighbors)...>>>>>>>>> Routers selected for traffic: 165, 355
Repeating (no neighbors)...>>>>>>>>> Routers selected for traffic: 433, 489
Repeating (no neighbors)...>>>>>>>>> Routers selected for traffic: 232, 277
Repeating (no neighbors)...>>>>>>>>> Routers selected for traffic: 306, 47
Repeating (no neighbors)...>>>>>>>>> Routers selected for traffic: 304, 522
Repeating (no neighbors)...>>>>>>>>> Routers selected for traffic: 0, 188
Repeating (no neighbors)...>>>>>>>>> Routers selected for traffic: 55, 371
Repeating (no neighbors)...>>>>>>>>> Routers selected for traffic: 166, 89
Repeating (no neighbors)...>>>>>>>>> Routers selected for traffic: 83, 210
Repeating (no neighbors)...>>>>>>>>> Routers selected for traffic: 275, 509
Repeating (no neighbors)...>>>>>>>>> Routers selected for traffic: 294, 483
Repeating (no neighbors)...>>>>>>>>> Routers selected for traffic: 386, 565
Repeating (no neighbors)...>>>>>>>>> Routers selected for traffic: 423, 55
Repeating (no neighbors)...>>>>>>>>> Routers selected for traffic: 404, 290
Repeating (used)...>>>>>>>>> Routers selected for traffic: 574, 560
Repeating (no neighbors)...>>>>>>>>> Routers selected for traffic: 377, 243
Repeating (no neighbors)...>>>>>>>>> Routers selected for traffic: 517, 176
Repeating (no neighbors)...>>>>>>>>> Routers selected for traffic: 347, 494
Repeating (no neighbors)...>>>>>>>>> Routers selected for traffic: 274, 514
Repeating (no neighbors)...>>>>>>>>> Routers selected for traffic: 563, 244
Repeating (no neighbors)...>>>>>>>>> Routers selected for traffic: 46, 82
Repeating (no neighbors)...>>>>>>>>> Routers selected for traffic: 229, 328
Repeating (no neighbors)...>>>>>>>>> Routers selected for traffic: 36, 392
Repeating (no neighbors)...>>>>>>>>> Routers selected for traffic: 490, 419
Repeating (no neighbors)...>>>>>>>>> Routers selected for traffic: 190, 530
Repeating (no neighbors)...>>>>>>>>> Routers selected for traffic: 284, 169
Repeating (no neighbors)...>>>>>>>>> Routers selected for traffic: 502, 250
Repeating (no neighbors)...>>>>>>>>> Routers selected for traffic: 343, 521
Repeating (no neighbors)...>>>>>>>>> Routers selected for traffic: 51, 572
Repeating (no neighbors)...>>>>>>>>> Routers selected for traffic: 406, 45
Repeating (no neighbors)...>>>>>>>>> Routers selected for traffic: 554, 64
Repeating (no neighbors)...>>>>>>>>> Routers selected for traffic: 272, 373
Repeating (no neighbors)...>>>>>>>>> Routers selected for traffic: 87, 464
Repeating (no neighbors)...>>>>>>>>> Routers selected for traffic: 285, 212
Repeating (no neighbors)...>>>>>>>>> Routers selected for traffic: 399, 152
Repeating (no neighbors)...>>>>>>>>> Routers selected for traffic: 417, 304
Repeating (no neighbors)...>>>>>>>>> Routers selected for traffic: 207, 487
Repeating (no neighbors)...>>>>>>>>> Routers selected for traffic: 37, 94
Repeating (no neighbors)...>>>>>>>>> Routers selected for traffic: 296, 391
Repeating (no neighbors)...>>>>>>>>> Routers selected for traffic: 488, 452
Repeating (no neighbors)...>>>>>>>>> Routers selected for traffic: 339, 55
Repeating (no neighbors)...>>>>>>>>> Routers selected for traffic: 4, 145
Repeating (no neighbors)...>>>>>>>>> Routers selected for traffic: 284, 228
Repeating (no neighbors)...>>>>>>>>> Routers selected for traffic: 72, 314
Repeating (no neighbors)...>>>>>>>>> Routers selected for traffic: 221, 329
Repeating (no neighbors)...>>>>>>>>> Routers selected for traffic: 345, 60
Repeating (no neighbors)...>>>>>>>>> Routers selected for traffic: 252, 460
Repeating (no neighbors)...>>>>>>>>> Routers selected for traffic: 410, 192
Repeating (no neighbors)...>>>>>>>>> Routers selected for traffic: 339, 116
Repeating (no neighbors)...>>>>>>>>> Routers selected for traffic: 367, 4
Repeating (used)...>>>>>>>>> Routers selected for traffic: 344, 245
Repeating (no neighbors)...>>>>>>>>> Routers selected for traffic: 65, 294
Repeating (no neighbors)...>>>>>>>>> Routers selected for traffic: 178, 548
Repeating (no neighbors)...>>>>>>>>> Routers selected for traffic: 39, 556
Repeating (no neighbors)...>>>>>>>>> Routers selected for traffic: 138, 192
Repeating (no neighbors)...>>>>>>>>> Routers selected for traffic: 511, 160
Repeating (no neighbors)...>>>>>>>>> Routers selected for traffic: 254, 424
Repeating (no neighbors)...>>>>>>>>> Routers selected for traffic: 55, 297
Repeating (no neighbors)...>>>>>>>>> Routers selected for traffic: 528, 61
Repeating (no neighbors)...>>>>>>>>> Routers selected for traffic: 101, 157
Repeating (no neighbors)...>>>>>>>>> Routers selected for traffic: 157, 245
Repeating (no neighbors)...>>>>>>>>> Routers selected for traffic: 254, 392
Repeating (no neighbors)...>>>>>>>>> Routers selected for traffic: 93, 109
Repeating (no neighbors)...>>>>>>>>> Routers selected for traffic: 459, 513
Repeating (no neighbors)...>>>>>>>>> Routers selected for traffic: 483, 145
Repeating (no neighbors)...>>>>>>>>> Routers selected for traffic: 503, 248
Repeating (no neighbors)...>>>>>>>>> Routers selected for traffic: 337, 536
Repeating (no neighbors)...>>>>>>>>> Routers selected for traffic: 507, 485
Repeating (used)...>>>>>>>>> Routers selected for traffic: 1, 379
Repeating (no neighbors)...>>>>>>>>> Routers selected for traffic: 285, 27
Repeating (no neighbors)...>>>>>>>>> Routers selected for traffic: 513, 171
Repeating (no neighbors)...>>>>>>>>> Routers selected for traffic: 141, 503
Repeating (no neighbors)...>>>>>>>>> Routers selected for traffic: 386, 482
Repeating (no neighbors)...>>>>>>>>> Routers selected for traffic: 234, 343
Repeating (no neighbors)...>>>>>>>>> Routers selected for traffic: 216, 306
Repeating (no neighbors)...>>>>>>>>> Routers selected for traffic: 127, 341
Repeating (no neighbors)...>>>>>>>>> Routers selected for traffic: 185, 161
Repeating (no neighbors)...>>>>>>>>> Routers selected for traffic: 455, 531
Repeating (no neighbors)...>>>>>>>>> Routers selected for traffic: 60, 265
Repeating (no neighbors)...>>>>>>>>> Routers selected for traffic: 141, 339
Repeating (used)...>>>>>>>>> Routers selected for traffic: 456, 179
Repeating (no neighbors)...>>>>>>>>> Routers selected for traffic: 304, 547
Repeating (no neighbors)...>>>>>>>>> Routers selected for traffic: 389, 168
Repeating (no neighbors)...>>>>>>>>> Routers selected for traffic: 299, 199
Repeating (no neighbors)...>>>>>>>>> Routers selected for traffic: 352, 451
Repeating (no neighbors)...>>>>>>>>> Routers selected for traffic: 266, 57
Repeating (no neighbors)...>>>>>>>>> Routers selected for traffic: 26, 138
Repeating (no neighbors)...>>>>>>>>> Routers selected for traffic: 219, 378
Repeating (no neighbors)...>>>>>>>>> Routers selected for traffic: 374, 519
Repeating (no neighbors)...>>>>>>>>> Routers selected for traffic: 135, 273
Repeating (no neighbors)...>>>>>>>>> Routers selected for traffic: 67, 166
Repeating (no neighbors)...>>>>>>>>> Routers selected for traffic: 39, 493
Repeating (no neighbors)...>>>>>>>>> Routers selected for traffic: 286, 83
Repeating (no neighbors)...>>>>>>>>> Routers selected for traffic: 335, 319
Repeating (no neighbors)...>>>>>>>>> Routers selected for traffic: 230, 379
Repeating (no neighbors)...>>>>>>>>> Routers selected for traffic: 127, 92
Repeating (no neighbors)...>>>>>>>>> Routers selected for traffic: 519, 394
Repeating (no neighbors)...>>>>>>>>> Routers selected for traffic: 527, 319
Repeating (no neighbors)...>>>>>>>>> Routers selected for traffic: 521, 166
Repeating (no neighbors)...>>>>>>>>> Routers selected for traffic: 396, 289
Repeating (no neighbors)...>>>>>>>>> Routers selected for traffic: 571, 66
Repeating (no neighbors)...>>>>>>>>> Routers selected for traffic: 243, 501
Repeating (no neighbors)...>>>>>>>>> Routers selected for traffic: 179, 417
Repeating (no neighbors)...>>>>>>>>> Routers selected for traffic: 295, 424
Repeating (no neighbors)...>>>>>>>>> Routers selected for traffic: 272, 304
Repeating (no neighbors)...>>>>>>>>> Routers selected for traffic: 570, 230
Repeating (no neighbors)...>>>>>>>>> Routers selected for traffic: 429, 26
Repeating (no neighbors)...>>>>>>>>> Routers selected for traffic: 144, 24
Repeating (no neighbors)...>>>>>>>>> Routers selected for traffic: 563, 361
Repeating (no neighbors)...>>>>>>>>> Routers selected for traffic: 251, 215
Repeating (no neighbors)...>>>>>>>>> Routers selected for traffic: 159, 332
Repeating (no neighbors)...>>>>>>>>> Routers selected for traffic: 192, 545
Repeating (no neighbors)...>>>>>>>>> Routers selected for traffic: 156, 22
Repeating (no neighbors)...>>>>>>>>> Routers selected for traffic: 209, 545
Repeating (no neighbors)...>>>>>>>>> Routers selected for traffic: 175, 477
Repeating (no neighbors)...>>>>>>>>> Routers selected for traffic: 174, 66
Repeating (no neighbors)...>>>>>>>>> Routers selected for traffic: 520, 377
Repeating (no neighbors)...>>>>>>>>> Routers selected for traffic: 544, 570
Repeating (no neighbors)...>>>>>>>>> Routers selected for traffic: 129, 178
Repeating (no neighbors)...>>>>>>>>> Routers selected for traffic: 325, 274
Repeating (no neighbors)...>>>>>>>>> Routers selected for traffic: 444, 316
Repeating (no neighbors)...>>>>>>>>> Routers selected for traffic: 461, 211
Repeating (no neighbors)...>>>>>>>>> Routers selected for traffic: 250, 561
Repeating (no neighbors)...>>>>>>>>> Routers selected for traffic: 226, 154
Repeating (no neighbors)...>>>>>>>>> Routers selected for traffic: 335, 434
Repeating (no neighbors)...>>>>>>>>> Routers selected for traffic: 237, 373
Repeating (no neighbors)...>>>>>>>>> Routers selected for traffic: 98, 389
Repeating (no neighbors)...>>>>>>>>> Routers selected for traffic: 251, 222
Repeating (no neighbors)...>>>>>>>>> Routers selected for traffic: 310, 417
Repeating (no neighbors)...>>>>>>>>> Routers selected for traffic: 89, 364
Repeating (no neighbors)...>>>>>>>>> Routers selected for traffic: 311, 234
Repeating (no neighbors)...>>>>>>>>> Routers selected for traffic: 405, 170
Repeating (no neighbors)...>>>>>>>>> Routers selected for traffic: 483, 281
Repeating (no neighbors)...>>>>>>>>> Routers selected for traffic: 53, 486
Repeating (no neighbors)...>>>>>>>>> Routers selected for traffic: 421, 365
Repeating (no neighbors)...>>>>>>>>> Routers selected for traffic: 179, 203
Repeating (no neighbors)...>>>>>>>>> Routers selected for traffic: 557, 36
Repeating (no neighbors)...>>>>>>>>> Routers selected for traffic: 283, 231
Repeating (no neighbors)...>>>>>>>>> Routers selected for traffic: 496, 383
Repeating (no neighbors)...>>>>>>>>> Routers selected for traffic: 254, 258
Repeating (no neighbors)...>>>>>>>>> Routers selected for traffic: 155, 452
Repeating (no neighbors)...>>>>>>>>> Routers selected for traffic: 502, 221
Repeating (used)...>>>>>>>>> Routers selected for traffic: 143, 82
Repeating (no neighbors)...>>>>>>>>> Routers selected for traffic: 51, 111
Repeating (no neighbors)...>>>>>>>>> Routers selected for traffic: 383, 231
Repeating (no neighbors)...>>>>>>>>> Routers selected for traffic: 334, 467
Repeating (no neighbors)...>>>>>>>>> Routers selected for traffic: 430, 459
Repeating (no neighbors)...>>>>>>>>> Routers selected for traffic: 188, 542
Repeating (no neighbors)...>>>>>>>>> Routers selected for traffic: 145, 294
Repeating (no neighbors)...>>>>>>>>> Routers selected for traffic: 199, 45
Repeating (no neighbors)...>>>>>>>>> Routers selected for traffic: 185, 319
Repeating (used)...>>>>>>>>> Routers selected for traffic: 545, 249
Repeating (no neighbors)...>>>>>>>>> Routers selected for traffic: 370, 226
Repeating (no neighbors)...>>>>>>>>> Routers selected for traffic: 286, 160
Repeating (no neighbors)...>>>>>>>>> Routers selected for traffic: 456, 423
Repeating (no neighbors)...>>>>>>>>> Routers selected for traffic: 410, 172
Repeating (no neighbors)...>>>>>>>>> Routers selected for traffic: 529, 124
Repeating (no neighbors)...>>>>>>>>> Routers selected for traffic: 51, 247
Repeating (no neighbors)...>>>>>>>>> Routers selected for traffic: 176, 136
Repeating (no neighbors)...>>>>>>>>> Routers selected for traffic: 423, 495
Repeating (no neighbors)...>>>>>>>>> Routers selected for traffic: 442, 160
Repeating (no neighbors)...>>>>>>>>> Routers selected for traffic: 171, 270
Repeating (no neighbors)...>>>>>>>>> Routers selected for traffic: 530, 138
Repeating (no neighbors)...>>>>>>>>> Routers selected for traffic: 536, 13
Repeating (no neighbors)...>>>>>>>>> Routers selected for traffic: 343, 160
Repeating (no neighbors)...>>>>>>>>> Routers selected for traffic: 218, 403
Repeating (used)...>>>>>>>>> Routers selected for traffic: 231, 409
Repeating (no neighbors)...>>>>>>>>> Routers selected for traffic: 331, 347
Repeating (no neighbors)...>>>>>>>>> Routers selected for traffic: 299, 297
Repeating (no neighbors)...>>>>>>>>> Routers selected for traffic: 402, 189
Repeating (no neighbors)...>>>>>>>>> Routers selected for traffic: 134, 288
Repeating (no neighbors)...>>>>>>>>> Routers selected for traffic: 465, 332
Repeating (no neighbors)...>>>>>>>>> Routers selected for traffic: 500, 571
Repeating (no neighbors)...>>>>>>>>> Routers selected for traffic: 539, 569
Repeating (no neighbors)...>>>>>>>>> Routers selected for traffic: 57, 480
Repeating (no neighbors)...>>>>>>>>> Routers selected for traffic: 551, 93
Repeating (no neighbors)...>>>>>>>>> Routers selected for traffic: 314, 207
Repeating (no neighbors)...>>>>>>>>> Routers selected for traffic: 38, 276
Repeating (no neighbors)...>>>>>>>>> Routers selected for traffic: 400, 103
Repeating (no neighbors)...>>>>>>>>> Routers selected for traffic: 280, 483
Repeating (no neighbors)...>>>>>>>>> Routers selected for traffic: 505, 444
Repeating (no neighbors)...>>>>>>>>> Routers selected for traffic: 124, 316
Repeating (no neighbors)...>>>>>>>>> Routers selected for traffic: 439, 415
Repeating (used)...>>>>>>>>> Routers selected for traffic: 482, 224
Repeating (no neighbors)...>>>>>>>>> Routers selected for traffic: 422, 522
Repeating (no neighbors)...>>>>>>>>> Routers selected for traffic: 248, 124
Repeating (no neighbors)...>>>>>>>>> Routers selected for traffic: 63, 271
Repeating (no neighbors)...>>>>>>>>> Routers selected for traffic: 176, 400
Repeating (no neighbors)...>>>>>>>>> Routers selected for traffic: 362, 229
Repeating (no neighbors)...>>>>>>>>> Routers selected for traffic: 271, 382
Repeating (no neighbors)...>>>>>>>>> Routers selected for traffic: 148, 210
Repeating (no neighbors)...>>>>>>>>> Routers selected for traffic: 538, 310
Repeating (no neighbors)...>>>>>>>>> Routers selected for traffic: 190, 39
Repeating (no neighbors)...>>>>>>>>> Routers selected for traffic: 252, 497
Repeating (no neighbors)...>>>>>>>>> Routers selected for traffic: 360, 111
Repeating (no neighbors)...>>>>>>>>> Routers selected for traffic: 243, 270
Repeating (no neighbors)...>>>>>>>>> Routers selected for traffic: 390, 574
Repeating (no neighbors)...>>>>>>>>> Routers selected for traffic: 550, 245
Repeating (no neighbors)...>>>>>>>>> Routers selected for traffic: 140, 455
Repeating (no neighbors)...>>>>>>>>> Routers selected for traffic: 421, 352
Repeating (no neighbors)...>>>>>>>>> Routers selected for traffic: 231, 461
Repeating (no neighbors)...>>>>>>>>> Routers selected for traffic: 271, 261
Repeating (no neighbors)...>>>>>>>>> Routers selected for traffic: 152, 238
Repeating (no neighbors)...>>>>>>>>> Routers selected for traffic: 67, 296
Repeating (no neighbors)...>>>>>>>>> Routers selected for traffic: 254, 304
Repeating (no neighbors)...>>>>>>>>> Routers selected for traffic: 474, 362
Repeating (no neighbors)...>>>>>>>>> Routers selected for traffic: 304, 430
Repeating (no neighbors)...>>>>>>>>> Routers selected for traffic: 466, 455
Repeating (no neighbors)...>>>>>>>>> Routers selected for traffic: 455, 509
Repeating (no neighbors)...>>>>>>>>> Routers selected for traffic: 208, 39
Repeating (no neighbors)...>>>>>>>>> Routers selected for traffic: 0, 239
Repeating (no neighbors)...>>>>>>>>> Routers selected for traffic: 286, 230
Repeating (no neighbors)...>>>>>>>>> Routers selected for traffic: 237, 84
Repeating (no neighbors)...>>>>>>>>> Routers selected for traffic: 427, 169
Repeating (no neighbors)...>>>>>>>>> Routers selected for traffic: 334, 92
Repeating (no neighbors)...>>>>>>>>> Routers selected for traffic: 307, 527
Repeating (no neighbors)...>>>>>>>>> Routers selected for traffic: 522, 374
Repeating (no neighbors)...>>>>>>>>> Routers selected for traffic: 208, 73
Repeating (no neighbors)...>>>>>>>>> Routers selected for traffic: 564, 65
Repeating (no neighbors)...>>>>>>>>> Routers selected for traffic: 179, 243
Repeating (no neighbors)...>>>>>>>>> Routers selected for traffic: 178, 57
Repeating (no neighbors)...>>>>>>>>> Routers selected for traffic: 391, 444
Repeating (no neighbors)...>>>>>>>>> Routers selected for traffic: 461, 104
Repeating (no neighbors)...>>>>>>>>> Routers selected for traffic: 312, 169
Repeating (no neighbors)...>>>>>>>>> Routers selected for traffic: 575, 310
Repeating (no neighbors)...>>>>>>>>> Routers selected for traffic: 190, 577
Repeating (no neighbors)...>>>>>>>>> Routers selected for traffic: 343, 270
Repeating (no neighbors)...>>>>>>>>> Routers selected for traffic: 229, 538
Repeating (no neighbors)...>>>>>>>>> Routers selected for traffic: 315, 444
Repeating (no neighbors)...>>>>>>>>> Routers selected for traffic: 495, 66
Repeating (no neighbors)...>>>>>>>>> Routers selected for traffic: 501, 38
Repeating (no neighbors)...>>>>>>>>> Routers selected for traffic: 560, 443
Repeating (no neighbors)...>>>>>>>>> Routers selected for traffic: 392, 558
Repeating (no neighbors)...>>>>>>>>> Routers selected for traffic: 316, 215
Repeating (no neighbors)...>>>>>>>>> Routers selected for traffic: 35, 460
Repeating (no neighbors)...>>>>>>>>> Routers selected for traffic: 247, 564
Repeating (no neighbors)...>>>>>>>>> Routers selected for traffic: 489, 429
Repeating (no neighbors)...>>>>>>>>> Routers selected for traffic: 429, 207
Repeating (no neighbors)...>>>>>>>>> Routers selected for traffic: 496, 538
Repeating (no neighbors)...>>>>>>>>> Routers selected for traffic: 324, 326
Repeating (no neighbors)...>>>>>>>>> Routers selected for traffic: 274, 305
Repeating (no neighbors)...>>>>>>>>> Routers selected for traffic: 325, 573
Repeating (no neighbors)...>>>>>>>>> Routers selected for traffic: 534, 344
Repeating (no neighbors)...>>>>>>>>> Routers selected for traffic: 369, 101
Repeating (no neighbors)...>>>>>>>>> Routers selected for traffic: 211, 116
Repeating (no neighbors)...>>>>>>>>> Routers selected for traffic: 147, 135
Repeating (no neighbors)...>>>>>>>>> Routers selected for traffic: 509, 498
Repeating (no neighbors)...>>>>>>>>> Routers selected for traffic: 533, 160
Repeating (no neighbors)...>>>>>>>>> Routers selected for traffic: 310, 103
Repeating (no neighbors)...>>>>>>>>> Routers selected for traffic: 324, 167
Repeating (no neighbors)...>>>>>>>>> Routers selected for traffic: 528, 368
Repeating (no neighbors)...>>>>>>>>> Routers selected for traffic: 154, 272
Repeating (no neighbors)...>>>>>>>>> Routers selected for traffic: 16, 538
Repeating (no neighbors)...>>>>>>>>> Routers selected for traffic: 431, 504
Repeating (no neighbors)...>>>>>>>>> Routers selected for traffic: 494, 179
Repeating (no neighbors)...>>>>>>>>> Routers selected for traffic: 256, 558
Repeating (no neighbors)...>>>>>>>>> Routers selected for traffic: 449, 379
Repeating (no neighbors)...>>>>>>>>> Routers selected for traffic: 389, 237
Repeating (no neighbors)...>>>>>>>>> Routers selected for traffic: 145, 547
Repeating (no neighbors)...>>>>>>>>> Routers selected for traffic: 297, 147
Repeating (no neighbors)...>>>>>>>>> Routers selected for traffic: 71, 243
Repeating (no neighbors)...>>>>>>>>> Routers selected for traffic: 238, 387
Repeating (no neighbors)...>>>>>>>>> Routers selected for traffic: 533, 559
Repeating (no neighbors)...>>>>>>>>> Routers selected for traffic: 500, 270
Repeating (used)...>>>>>>>>> Routers selected for traffic: 465, 371
Repeating (no neighbors)...>>>>>>>>> Routers selected for traffic: 457, 183
Repeating (no neighbors)...>>>>>>>>> Routers selected for traffic: 239, 521
Repeating (no neighbors)...>>>>>>>>> Routers selected for traffic: 228, 328
Repeating (no neighbors)...>>>>>>>>> Routers selected for traffic: 83, 478
Repeating (no neighbors)...>>>>>>>>> Routers selected for traffic: 243, 126
Repeating (no neighbors)...>>>>>>>>> Routers selected for traffic: 391, 265
Repeating (no neighbors)...>>>>>>>>> Routers selected for traffic: 407, 329
Repeating (no neighbors)...>>>>>>>>> Routers selected for traffic: 346, 13
Repeating (no neighbors)...>>>>>>>>> Routers selected for traffic: 229, 456
Repeating (no neighbors)...>>>>>>>>> Routers selected for traffic: 491, 166
Repeating (no neighbors)...>>>>>>>>> Routers selected for traffic: 414, 140
Repeating (no neighbors)...>>>>>>>>> Routers selected for traffic: 479, 498
Repeating (no neighbors)...>>>>>>>>> Routers selected for traffic: 283, 395
Repeating (no neighbors)...>>>>>>>>> Routers selected for traffic: 395, 436
Repeating (no neighbors)...>>>>>>>>> Routers selected for traffic: 199, 514
Repeating (used)...>>>>>>>>> Routers selected for traffic: 196, 556
Repeating (no neighbors)...>>>>>>>>> Routers selected for traffic: 155, 366
Repeating (no neighbors)...>>>>>>>>> Routers selected for traffic: 537, 478
Repeating (no neighbors)...>>>>>>>>> Routers selected for traffic: 92, 522
Repeating (no neighbors)...>>>>>>>>> Routers selected for traffic: 38, 399
Repeating (no neighbors)...>>>>>>>>> Routers selected for traffic: 208, 410
Repeating (no neighbors)...>>>>>>>>> Routers selected for traffic: 244, 317
Repeating (no neighbors)...>>>>>>>>> Routers selected for traffic: 124, 567
Repeating (no neighbors)...>>>>>>>>> Routers selected for traffic: 477, 170
Repeating (no neighbors)...>>>>>>>>> Routers selected for traffic: 563, 277
Repeating (no neighbors)...>>>>>>>>> Routers selected for traffic: 285, 123
Repeating (no neighbors)...>>>>>>>>> Routers selected for traffic: 292, 397
Repeating (no neighbors)...>>>>>>>>> Routers selected for traffic: 430, 455
Repeating (no neighbors)...>>>>>>>>> Routers selected for traffic: 381, 543
Repeating (no neighbors)...>>>>>>>>> Routers selected for traffic: 36, 299
[...]
Repeating (no neighbors)...>>>>>>>>> Routers selected for traffic: 269, 272
Repeating (no neighbors)...>>>>>>>>> Routers selected for traffic: 552, 271
Repeating (no neighbors)...>>>>>>>>> Routers selected for traffic: 520, 547
Repeating (no neighbors)...>>>>>>>>> Routers selected for traffic: 303, 239
Repeating (no neighbors)...>>>>>>>>> Routers selected for traffic: 505, 477
Repeating (no neighbors)...>>>>>>>>> Routers selected for traffic: 461, 413
Repeating (no neighbors)...>>>>>>>>> Routers selected for traffic: 255, 355
Repeating (no neighbors)...>>>>>>>>> Routers selected for traffic: 567, 170
Repeating (no neighbors)...>>>>>>>>> Routers selected for traffic: 495, 385
Repeating (no neighbors)...>>>>>>>>> Routers selected for traffic: 565, 222
Repeating (no neighbors)...>>>>>>>>> Routers selected for traffic: 311, 521
Repeating (no neighbors)...>>>>>>>>> Routers selected for traffic: 517, 314
Repeating (no neighbors)...>>>>>>>>> Routers selected for traffic: 548, 140
Repeating (no neighbors)...>>>>>>>>> Routers selected for traffic: 85, 307
Repeating (no neighbors)...>>>>>>>>> Routers selected for traffic: 187, 369
Repeating (no neighbors)...>>>>>>>>> Routers selected for traffic: 285, 380
Repeating (no neighbors)...>>>>>>>>> Routers selected for traffic: 138, 257
Repeating (no neighbors)...>>>>>>>>> Routers selected for traffic: 140, 561
Repeating (used)...>>>>>>>>> Routers selected for traffic: 254, 272
Repeating (no neighbors)...>>>>>>>>> Routers selected for traffic: 409, 498
Repeating (no neighbors)...>>>>>>>>> Routers selected for traffic: 523, 277
Repeating (no neighbors)...>>>>>>>>> Routers selected for traffic: 247, 557
Repeating (no neighbors)...>>>>>>>>> Routers selected for traffic: 466, 239
Repeating (no neighbors)...>>>>>>>>> Routers selected for traffic: 168, 129
Repeating (no neighbors)...>>>>>>>>> Routers selected for traffic: 547, 206
Repeating (no neighbors)...>>>>>>>>> Routers selected for traffic: 554, 173
Repeating (no neighbors)...>>>>>>>>> Routers selected for traffic: 368, 536
Repeating (no neighbors)...>>>>>>>>> Routers selected for traffic: 464, 216
Repeating (no neighbors)...>>>>>>>>> Routers selected for traffic: 574, 213
Repeating (no neighbors)...>>>>>>>>> Routers selected for traffic: 257, 212
Repeating (no neighbors)...>>>>>>>>> Routers selected for traffic: 317, 148
Repeating (no neighbors)...>>>>>>>>> Routers selected for traffic: 524, 44
Repeating (no neighbors)...>>>>>>>>> Routers selected for traffic: 84, 192
Repeating (no neighbors)...>>>>>>>>> Routers selected for traffic: 577, 572
Repeating (no neighbors)...>>>>>>>>> Routers selected for traffic: 391, 209
Repeating (no neighbors)...>>>>>>>>> Routers selected for traffic: 304, 132
Repeating (no neighbors)...>>>>>>>>> Routers selected for traffic: 216, 474
Repeating (no neighbors)...>>>>>>>>> Routers selected for traffic: 94, 79
Repeating (no neighbors)...>>>>>>>>> Routers selected for traffic: 128, 196
Repeating (no neighbors)...>>>>>>>>> Routers selected for traffic: 457, 47
Repeating (used)...>>>>>>>>> Routers selected for traffic: 466, 382
Repeating (no neighbors)...>>>>>>>>> Routers selected for traffic: 309, 547
Repeating (no neighbors)...>>>>>>>>> Routers selected for traffic: 376, 92
Repeating (no neighbors)...>>>>>>>>> Routers selected for traffic: 237, 412
Repeating (no neighbors)...>>>>>>>>> Routers selected for traffic: 192, 114
Repeating (no neighbors)...>>>>>>>>> Routers selected for traffic: 545, 179
Repeating (no neighbors)...>>>>>>>>> Routers selected for traffic: 389, 509
Repeating (no neighbors)...>>>>>>>>> Routers selected for traffic: 291, 577
Repeating (no neighbors)...>>>>>>>>> Routers selected for traffic: 324, 360
Repeating (no neighbors)...>>>>>>>>> Routers selected for traffic: 301, 560
Repeating (used)...>>>>>>>>> Routers selected for traffic: 243, 252
Repeating (no neighbors)...>>>>>>>>> Routers selected for traffic: 385, 152
Repeating (no neighbors)...>>>>>>>>> Routers selected for traffic: 250, 231
Repeating (no neighbors)...>>>>>>>>> Routers selected for traffic: 436, 311
Repeating (no neighbors)...>>>>>>>>> Routers selected for traffic: 237, 414
Repeating (no neighbors)...>>>>>>>>> Routers selected for traffic: 478, 524
Repeating (no neighbors)...>>>>>>>>> Routers selected for traffic: 190, 254
Repeating (no neighbors)...>>>>>>>>> Routers selected for traffic: 231, 384
Repeating (no neighbors)...>>>>>>>>> Routers selected for traffic: 548, 111
Repeating (no neighbors)...>>>>>>>>> Routers selected for traffic: 395, 206
Repeating (no neighbors)...>>>>>>>>> Routers selected for traffic: 479, 132
Repeating (no neighbors)...>>>>>>>>> Routers selected for traffic: 275, 278
Repeating (no neighbors)...>>>>>>>>> Routers selected for traffic: 209, 132
Repeating (no neighbors)...>>>>>>>>> Routers selected for traffic: 460, 232
Repeating (no neighbors)...>>>>>>>>> Routers selected for traffic: 383, 111
Repeating (no neighbors)...>>>>>>>>> Routers selected for traffic: 406, 539
Repeating (no neighbors)...>>>>>>>>> Routers selected for traffic: 524, 456
Repeating (no neighbors)...>>>>>>>>> Routers selected for traffic: 348, 200
Repeating (no neighbors)...>>>>>>>>> Routers selected for traffic: 331, 189
Repeating (no neighbors)...>>>>>>>>> Routers selected for traffic: 167, 228
Repeating (no neighbors)...>>>>>>>>> Routers selected for traffic: 505, 552
Repeating (no neighbors)...>>>>>>>>> Routers selected for traffic: 170, 362
Repeating (no neighbors)...>>>>>>>>> Routers selected for traffic: 231, 552
Repeating (no neighbors)...>>>>>>>>> Routers selected for traffic: 155, 452
Repeating (no neighbors)...>>>>>>>>> Routers selected for traffic: 326, 206
Repeating (no neighbors)...>>>>>>>>> Routers selected for traffic: 550, 468
Repeating (no neighbors)...>>>>>>>>> Routers selected for traffic: 247, 249
Repeating (no neighbors)...>>>>>>>>> Routers selected for traffic: 171, 111
Repeating (no neighbors)...>>>>>>>>> Routers selected for traffic: 541, 539
Repeating (no neighbors)...>>>>>>>>> Routers selected for traffic: 257, 331
Repeating (no neighbors)...>>>>>>>>> Routers selected for traffic: 558, 324
Repeating (no neighbors)...>>>>>>>>> Routers selected for traffic: 277, 498
Repeating (no neighbors)...>>>>>>>>> Routers selected for traffic: 189, 547
Repeating (no neighbors)...>>>>>>>>> Routers selected for traffic: 365, 172
Repeating (no neighbors)...>>>>>>>>> Routers selected for traffic: 391, 455
Repeating (no neighbors)...>>>>>>>>> Routers selected for traffic: 317, 552
Repeating (no neighbors)...>>>>>>>>> Routers selected for traffic: 417, 148
Repeating (no neighbors)...>>>>>>>>> Routers selected for traffic: 326, 303
Repeating (no neighbors)...>>>>>>>>> Routers selected for traffic: 369, 143
Repeating (no neighbors)...>>>>>>>>> Routers selected for traffic: 156, 101
Repeating (no neighbors)...>>>>>>>>> Routers selected for traffic: 252, 369
Repeating (no neighbors)...>>>>>>>>> Routers selected for traffic: 235, 163
Repeating (no neighbors)...>>>>>>>>> Routers selected for traffic: 534, 321
Repeating (no neighbors)...>>>>>>>>> Routers selected for traffic: 451, 484
Repeating (no neighbors)...>>>>>>>>> Routers selected for traffic: 517, 104
Repeating (no neighbors)...>>>>>>>>> Routers selected for traffic: 479, 243
Repeating (no neighbors)...>>>>>>>>> Routers selected for traffic: 360, 436
Repeating (no neighbors)...>>>>>>>>> Routers selected for traffic: 169, 200
Repeating (no neighbors)...>>>>>>>>> Routers selected for traffic: 129, 191
Repeating (no neighbors)...>>>>>>>>> Routers selected for traffic: 276, 444
Repeating (no neighbors)...>>>>>>>>> Routers selected for traffic: 545, 520
Repeating (no neighbors)...>>>>>>>>> Routers selected for traffic: 406, 114
Repeating (no neighbors)...>>>>>>>>> Routers selected for traffic: 325, 394
Repeating (no neighbors)...>>>>>>>>> Routers selected for traffic: 572, 94
Repeating (no neighbors)...>>>>>>>>> Routers selected for traffic: 190, 391
Repeating (no neighbors)...>>>>>>>>> Routers selected for traffic: 380, 88
Repeating (no neighbors)...>>>>>>>>> Routers selected for traffic: 169, 523
Repeating (no neighbors)...>>>>>>>>> Routers selected for traffic: 173, 114
Repeating (no neighbors)...>>>>>>>>> Routers selected for traffic: 257, 261
Repeating (no neighbors)...>>>>>>>>> Routers selected for traffic: 257, 453
Repeating (no neighbors)...>>>>>>>>> Routers selected for traffic: 291, 157
Repeating (no neighbors)...>>>>>>>>> Routers selected for traffic: 85, 307
Repeating (no neighbors)...>>>>>>>>> Routers selected for traffic: 491, 436
Repeating (no neighbors)...>>>>>>>>> Routers selected for traffic: 419, 539
Repeating (no neighbors)...>>>>>>>>> Routers selected for traffic: 524, 117
Repeating (no neighbors)...>>>>>>>>> Routers selected for traffic: 129, 483
Repeating (no neighbors)...>>>>>>>>> Routers selected for traffic: 289, 458
Repeating (no neighbors)...>>>>>>>>> Routers selected for traffic: 255, 539
Repeating (no neighbors)...>>>>>>>>> Routers selected for traffic: 491, 249
Repeating (no neighbors)...>>>>>>>>> Routers selected for traffic: 303, 84
Repeating (no neighbors)...>>>>>>>>> Routers selected for traffic: 550, 83
Repeating (no neighbors)...>>>>>>>>> Routers selected for traffic: 104, 143
Repeating (no neighbors)...>>>>>>>>> Routers selected for traffic: 534, 459
Repeating (no neighbors)...>>>>>>>>> Routers selected for traffic: 414, 462
Repeating (no neighbors)...>>>>>>>>> Routers selected for traffic: 136, 331
Repeating (no neighbors)...>>>>>>>>> Routers selected for traffic: 309, 44
Repeating (no neighbors)...>>>>>>>>> Routers selected for traffic: 409, 321
Repeating (no neighbors)...>>>>>>>>> Routers selected for traffic: 311, 554
Repeating (no neighbors)...>>>>>>>>> Routers selected for traffic: 163, 146
Repeating (no neighbors)...>>>>>>>>> Routers selected for traffic: 252, 92
Repeating (no neighbors)...>>>>>>>>> Routers selected for traffic: 422, 291
Repeating (no neighbors)...>>>>>>>>> Routers selected for traffic: 247, 136
Repeating (no neighbors)...>>>>>>>>> Routers selected for traffic: 406, 441
Repeating (no neighbors)...>>>>>>>>> Routers selected for traffic: 325, 313
Repeating (no neighbors)...>>>>>>>>> Routers selected for traffic: 331, 547
Repeating (no neighbors)...>>>>>>>>> Routers selected for traffic: 558, 304
Repeating (no neighbors)...>>>>>>>>> Routers selected for traffic: 291, 84
Repeating (no neighbors)...>>>>>>>>> Routers selected for traffic: 88, 245
Repeating (no neighbors)...>>>>>>>>> Routers selected for traffic: 206, 170
Repeating (no neighbors)...>>>>>>>>> Routers selected for traffic: 114, 247
Repeating (no neighbors)...>>>>>>>>> Routers selected for traffic: 422, 577
Repeating (no neighbors)...>>>>>>>>> Routers selected for traffic: 250, 482
Repeating (no neighbors)...>>>>>>>>> Routers selected for traffic: 317, 220
Repeating (no neighbors)...>>>>>>>>> Routers selected for traffic: 465, 145
Repeating (no neighbors)...>>>>>>>>> Routers selected for traffic: 272, 132
Repeating (no neighbors)...>>>>>>>>> Routers selected for traffic: 406, 114
Repeating (no neighbors)...>>>>>>>>> Routers selected for traffic: 348, 309
Repeating (no neighbors)...>>>>>>>>> Routers selected for traffic: 409, 167
Repeating (no neighbors)...>>>>>>>>> Routers selected for traffic: 152, 394
Repeating (no neighbors)...>>>>>>>>> Routers selected for traffic: 138, 146
Too many failed attempts, finishing...
Repeating (used)...=================== Finished building worst-case traffic pattern... ====================
Sum of nodes sending: 484
Sum of nodes: 6358
0
Class 0:
Minimum packet latency = 5
Average packet latency = 11.8402
Maximum packet latency = 16
Minimum network latency = 5
Average network latency = 11.8402
Maximum network latency = 16
Slowest packet = 454
Minimum flit latency = 5
Average flit latency = 11.8402
Maximum flit latency = 16
Slowest flit = 454
Minimum fragmentation = 0
Average fragmentation = 0
Maximum fragmentation = 0
Minimum injected packet rate = 0 (at node 181)
Average injected packet rate = 0.0100126
Maximum injected packet rate = 0.032 (at node 4904)
Minimum accepted packet rate = 0 (at node 21)
Average accepted packet rate = 0.00977792
Maximum accepted packet rate = 0.03 (at node 2413)
Minimum injected flit rate = 0 (at node 181)
Average injected flit rate = 0.0100126
Maximum injected flit rate = 0.032 (at node 4904)
Minimum accepted flit rate = 0 (at node 21)
Average accepted flit rate = 0.00977792
Maximum accepted flit rate = 0.03 (at node 2413)
Average injected packet length = 1
Average accepted packet length = 1
Total in-flight flits = 746 (0 measured)
latency change    = 1
throughput change = 1
0
Class 0:
Minimum packet latency = 5
Average packet latency = 11.8527
Maximum packet latency = 16
Minimum network latency = 5
Average network latency = 11.8527
Maximum network latency = 16
Slowest packet = 454
Minimum flit latency = 5
Average flit latency = 11.8527
Maximum flit latency = 16
Slowest flit = 454
Minimum fragmentation = 0
Average fragmentation = 0
Maximum fragmentation = 0
Minimum injected packet rate = 0.001 (at node 3393)
Average injected packet rate = 0.0100038
Maximum injected packet rate = 0.024 (at node 3655)
Minimum accepted packet rate = 0.001 (at node 1633)
Average accepted packet rate = 0.00988408
Maximum accepted packet rate = 0.022 (at node 2419)
Minimum injected flit rate = 0.001 (at node 3393)
Average injected flit rate = 0.0100038
Maximum injected flit rate = 0.024 (at node 3655)
Minimum accepted flit rate = 0.001 (at node 1633)
Average accepted flit rate = 0.00988408
Maximum accepted flit rate = 0.022 (at node 2419)
Average injected packet length = 1
Average accepted packet length = 1
Total in-flight flits = 761 (0 measured)
latency change    = 0.00105642
throughput change = 0.0107411
0
Class 0:
Minimum packet latency = 5
Average packet latency = 11.8408
Maximum packet latency = 16
Minimum network latency = 5
Average network latency = 11.8408
Maximum network latency = 16
Slowest packet = 63406
Minimum flit latency = 5
Average flit latency = 11.8408
Maximum flit latency = 16
Slowest flit = 63406
Minimum fragmentation = 0
Average fragmentation = 0
Maximum fragmentation = 0
Minimum injected packet rate = 0 (at node 53)
Average injected packet rate = 0.0100094
Maximum injected packet rate = 0.028 (at node 1139)
Minimum accepted packet rate = 0 (at node 26)
Average accepted packet rate = 0.0100041
Maximum accepted packet rate = 0.032 (at node 670)
Minimum injected flit rate = 0 (at node 53)
Average injected flit rate = 0.0100094
Maximum injected flit rate = 0.028 (at node 1139)
Minimum accepted flit rate = 0 (at node 26)
Average accepted flit rate = 0.0100041
Maximum accepted flit rate = 0.032 (at node 670)
Average injected packet length = 1
Average accepted packet length = 1
Total in-flight flits = 778 (0 measured)
latency change    = 0.0010046
throughput change = 0.0119957
Warmed up ...Time used is 1500 cycles
1
Class 0:
Minimum packet latency = 5
Average packet latency = 11.8393
Maximum packet latency = 16
Minimum network latency = 5
Average network latency = 11.8393
Maximum network latency = 16
Slowest packet = 96341
Minimum flit latency = 5
Average flit latency = 11.8442
Maximum flit latency = 16
Slowest flit = 94540
Minimum fragmentation = 0
Average fragmentation = 0
Maximum fragmentation = 0
Minimum injected packet rate = 0 (at node 66)
Average injected packet rate = 0.00994652
Maximum injected packet rate = 0.032 (at node 3438)
Minimum accepted packet rate = 0 (at node 0)
Average accepted packet rate = 0.00996068
Maximum accepted packet rate = 0.03 (at node 2406)
Minimum injected flit rate = 0 (at node 66)
Average injected flit rate = 0.00994652
Maximum injected flit rate = 0.032 (at node 3438)
Minimum accepted flit rate = 0 (at node 0)
Average accepted flit rate = 0.00996068
Maximum accepted flit rate = 0.03 (at node 2406)
Average injected packet length = 1
Average accepted packet length = 1
Total in-flight flits = 733 (733 measured)
latency change    = 0.000125317
throughput change = 0.00435812
1
Class 0:
Minimum packet latency = 5
Average packet latency = 11.8432
Maximum packet latency = 16
Minimum network latency = 5
Average network latency = 11.8432
Maximum network latency = 16
Slowest packet = 96341
Minimum flit latency = 5
Average flit latency = 11.8457
Maximum flit latency = 16
Slowest flit = 94540
Minimum fragmentation = 0
Average fragmentation = 0
Maximum fragmentation = 0
Minimum injected packet rate = 0.001 (at node 1146)
Average injected packet rate = 0.00996383
Maximum injected packet rate = 0.023 (at node 1125)
Minimum accepted packet rate = 0 (at node 511)
Average accepted packet rate = 0.00996162
Maximum accepted packet rate = 0.024 (at node 5529)
Minimum injected flit rate = 0.001 (at node 1146)
Average injected flit rate = 0.00996383
Maximum injected flit rate = 0.023 (at node 1125)
Minimum accepted flit rate = 0 (at node 511)
Average accepted flit rate = 0.00996162
Maximum accepted flit rate = 0.024 (at node 5529)
Average injected packet length = 1
Average accepted packet length = 1
Total in-flight flits = 792 (792 measured)
latency change    = 0.000331999
throughput change = 9.47329e-05
1
Class 0:
Minimum packet latency = 5
Average packet latency = 11.852
Maximum packet latency = 17
Minimum network latency = 5
Average network latency = 11.852
Maximum network latency = 17
Slowest packet = 167834
Minimum flit latency = 5
Average flit latency = 11.8536
Maximum flit latency = 17
Slowest flit = 167834
Minimum fragmentation = 0
Average fragmentation = 0
Maximum fragmentation = 0
Minimum injected packet rate = 0.00266667 (at node 1820)
Average injected packet rate = 0.0100178
Maximum injected packet rate = 0.0206667 (at node 3325)
Minimum accepted packet rate = 0.00266667 (at node 237)
Average accepted packet rate = 0.0100156
Maximum accepted packet rate = 0.0193333 (at node 4012)
Minimum injected flit rate = 0.00266667 (at node 1820)
Average injected flit rate = 0.0100178
Maximum injected flit rate = 0.0206667 (at node 3325)
Minimum accepted flit rate = 0.00266667 (at node 237)
Average accepted flit rate = 0.0100156
Maximum accepted flit rate = 0.0193333 (at node 4012)
Average injected packet length = 1
Average accepted packet length = 1
Total in-flight flits = 799 (799 measured)
latency change    = 0.000740691
throughput change = 0.0053916
Draining all recorded packets ...
Draining remaining packets ...
Time taken is 3033 cycles
====== Traffic class 0 ======
Overall minimum packet latency = 5 (1 samples)
Overall average packet latency = 11.8533 (1 samples)
Overall maximum packet latency = 17 (1 samples)
Overall minimum network latency = 5 (1 samples)
Overall average network latency = 11.8533 (1 samples)
Overall maximum network latency = 17 (1 samples)
Overall minimum flit latency = 5 (1 samples)
Overall average flit latency = 11.8556 (1 samples)
Overall maximum flit latency = 17 (1 samples)
Overall minimum fragmentation = 0 (1 samples)
Overall average fragmentation = 0 (1 samples)
Overall maximum fragmentation = 0 (1 samples)
Overall minimum injected packet rate = 0.00266667 (1 samples)
Overall average injected packet rate = 0.0100178 (1 samples)
Overall maximum injected packet rate = 0.0206667 (1 samples)
Overall minimum accepted packet rate = 0.00266667 (1 samples)
Overall average accepted packet rate = 0.0100156 (1 samples)
Overall maximum accepted packet rate = 0.0193333 (1 samples)
Overall minimum injected flit rate = 0.00266667 (1 samples)
Overall average injected flit rate = 0.0100178 (1 samples)
Overall maximum injected flit rate = 0.0206667 (1 samples)
Overall minimum accepted flit rate = 0.00266667 (1 samples)
Overall average accepted flit rate = 0.0100156 (1 samples)
Overall maximum accepted flit rate = 0.0193333 (1 samples)
Overall average injected packet size = 1 (1 samples)
Overall average accepted packet size = 1 (1 samples)
Overall average hops = 3.27715 (1 samples)
Total run time 76.9219
