BEGIN Configuration File: ./DF.conf
injection_rate = 0.5;
traffic = uniform;
use_size_power_of_two = no;
routing_function = min;
vc_buf_size = 16;
topology = dragonflynew;
//use_noc_latency = 0;
//hold_switch_for_packet=0;

k = 3;
n = 1;

packet_size  = 1;
num_vcs      = 3;
vc_allocator = separable_input_first; 
sw_allocator = separable_input_first;

alloc_iters   = 1;
sample_period = 500;

wait_for_tail_credit = 0;
use_read_write       = 0;

credit_delay   = 2;
routing_delay  = 0;
vc_alloc_delay = 1;
sw_alloc_delay = 1;
st_final_delay = 1;

input_speedup     = 1;
output_speedup    = 1;
internal_speedup  = 2.0;

warmup_periods = 3;
sim_count      = 1;

priority = none;
injection_rate_uses_flits=1;

END Configuration File: ./DF.conf
Number of nodes: 342
Number of routers: 114
 Dragonfly 
 p = 3 n = 1
 each switch - total radix =  11
 # of switches = 114
 # of channels = 912
 # of nodes ( size of network ) = 342
 # of groups (_g) = 19
 # of routers per group (_a) = 6
Done links
0
Class 0:
Minimum packet latency = 5
Average packet latency = 14.7454
Maximum packet latency = 37
Minimum network latency = 5
Average network latency = 14.7454
Maximum network latency = 37
Slowest packet = 62440
Minimum flit latency = 5
Average flit latency = 14.7454
Maximum flit latency = 37
Slowest flit = 62440
Minimum fragmentation = 0
Average fragmentation = 0
Maximum fragmentation = 0
Minimum injected packet rate = 0.436 (at node 177)
Average injected packet rate = 0.500444
Maximum injected packet rate = 0.58 (at node 334)
Minimum accepted packet rate = 0.398 (at node 34)
Average accepted packet rate = 0.485281
Maximum accepted packet rate = 0.556 (at node 296)
Minimum injected flit rate = 0.436 (at node 177)
Average injected flit rate = 0.500444
Maximum injected flit rate = 0.58 (at node 334)
Minimum accepted flit rate = 0.398 (at node 34)
Average accepted flit rate = 0.485281
Maximum accepted flit rate = 0.556 (at node 296)
Average injected packet length = 1
Average accepted packet length = 1
Total in-flight flits = 2593 (0 measured)
latency change    = 1
throughput change = 1
0
Class 0:
Minimum packet latency = 5
Average packet latency = 14.7742
Maximum packet latency = 40
Minimum network latency = 5
Average network latency = 14.7742
Maximum network latency = 40
Slowest packet = 79989
Minimum flit latency = 5
Average flit latency = 14.7742
Maximum flit latency = 40
Slowest flit = 79989
Minimum fragmentation = 0
Average fragmentation = 0
Maximum fragmentation = 0
Minimum injected packet rate = 0.443 (at node 150)
Average injected packet rate = 0.500246
Maximum injected packet rate = 0.541 (at node 195)
Minimum accepted packet rate = 0.415 (at node 140)
Average accepted packet rate = 0.492579
Maximum accepted packet rate = 0.556 (at node 175)
Minimum injected flit rate = 0.443 (at node 150)
Average injected flit rate = 0.500246
Maximum injected flit rate = 0.541 (at node 195)
Minimum accepted flit rate = 0.415 (at node 140)
Average accepted flit rate = 0.492579
Maximum accepted flit rate = 0.556 (at node 175)
Average injected packet length = 1
Average accepted packet length = 1
Total in-flight flits = 2622 (0 measured)
latency change    = 0.00194684
throughput change = 0.0148164
0
Class 0:
Minimum packet latency = 5
Average packet latency = 14.7798
Maximum packet latency = 41
Minimum network latency = 5
Average network latency = 14.7798
Maximum network latency = 41
Slowest packet = 226907
Minimum flit latency = 5
Average flit latency = 14.7798
Maximum flit latency = 41
Slowest flit = 226907
Minimum fragmentation = 0
Average fragmentation = 0
Maximum fragmentation = 0
Minimum injected packet rate = 0.444 (at node 139)
Average injected packet rate = 0.500474
Maximum injected packet rate = 0.552 (at node 208)
Minimum accepted packet rate = 0.406 (at node 26)
Average accepted packet rate = 0.500942
Maximum accepted packet rate = 0.6 (at node 88)
Minimum injected flit rate = 0.444 (at node 139)
Average injected flit rate = 0.500474
Maximum injected flit rate = 0.552 (at node 208)
Minimum accepted flit rate = 0.406 (at node 26)
Average accepted flit rate = 0.500942
Maximum accepted flit rate = 0.6 (at node 88)
Average injected packet length = 1
Average accepted packet length = 1
Total in-flight flits = 2542 (0 measured)
latency change    = 0.000383821
throughput change = 0.0166937
Warmed up ...Time used is 1500 cycles
1
Class 0:
Minimum packet latency = 5
Average packet latency = 14.7736
Maximum packet latency = 36
Minimum network latency = 5
Average network latency = 14.7736
Maximum network latency = 36
Slowest packet = 310758
Minimum flit latency = 5
Average flit latency = 14.7965
Maximum flit latency = 36
Slowest flit = 310758
Minimum fragmentation = 0
Average fragmentation = 0
Maximum fragmentation = 0
Minimum injected packet rate = 0.448 (at node 339)
Average injected packet rate = 0.500801
Maximum injected packet rate = 0.582 (at node 101)
Minimum accepted packet rate = 0.41 (at node 24)
Average accepted packet rate = 0.500433
Maximum accepted packet rate = 0.584 (at node 292)
Minimum injected flit rate = 0.448 (at node 339)
Average injected flit rate = 0.500801
Maximum injected flit rate = 0.582 (at node 101)
Minimum accepted flit rate = 0.41 (at node 24)
Average accepted flit rate = 0.500433
Maximum accepted flit rate = 0.584 (at node 292)
Average injected packet length = 1
Average accepted packet length = 1
Total in-flight flits = 2605 (2605 measured)
latency change    = 0.000420481
throughput change = 0.00101666
1
Class 0:
Minimum packet latency = 5
Average packet latency = 14.7861
Maximum packet latency = 37
Minimum network latency = 5
Average network latency = 14.7861
Maximum network latency = 37
Slowest packet = 365903
Minimum flit latency = 5
Average flit latency = 14.7974
Maximum flit latency = 37
Slowest flit = 365903
Minimum fragmentation = 0
Average fragmentation = 0
Maximum fragmentation = 0
Minimum injected packet rate = 0.457 (at node 339)
Average injected packet rate = 0.500693
Maximum injected packet rate = 0.537 (at node 199)
Minimum accepted packet rate = 0.428 (at node 183)
Average accepted packet rate = 0.500605
Maximum accepted packet rate = 0.56 (at node 304)
Minimum injected flit rate = 0.457 (at node 339)
Average injected flit rate = 0.500693
Maximum injected flit rate = 0.537 (at node 199)
Minimum accepted flit rate = 0.428 (at node 183)
Average accepted flit rate = 0.500605
Maximum accepted flit rate = 0.56 (at node 304)
Average injected packet length = 1
Average accepted packet length = 1
Total in-flight flits = 2572 (2572 measured)
latency change    = 0.000845578
throughput change = 0.000344612
1
Class 0:
Minimum packet latency = 5
Average packet latency = 14.7835
Maximum packet latency = 37
Minimum network latency = 5
Average network latency = 14.7835
Maximum network latency = 37
Slowest packet = 365903
Minimum flit latency = 5
Average flit latency = 14.791
Maximum flit latency = 37
Slowest flit = 365903
Minimum fragmentation = 0
Average fragmentation = 0
Maximum fragmentation = 0
Minimum injected packet rate = 0.464667 (at node 339)
Average injected packet rate = 0.500351
Maximum injected packet rate = 0.536 (at node 85)
Minimum accepted packet rate = 0.431333 (at node 183)
Average accepted packet rate = 0.500415
Maximum accepted packet rate = 0.546667 (at node 66)
Minimum injected flit rate = 0.464667 (at node 339)
Average injected flit rate = 0.500351
Maximum injected flit rate = 0.536 (at node 85)
Minimum accepted flit rate = 0.431333 (at node 183)
Average accepted flit rate = 0.500415
Maximum accepted flit rate = 0.546667 (at node 66)
Average injected packet length = 1
Average accepted packet length = 1
Total in-flight flits = 2509 (2509 measured)
latency change    = 0.000178049
throughput change = 0.000379802
Draining all recorded packets ...
Draining remaining packets ...
Time taken is 3052 cycles
====== Traffic class 0 ======
Overall minimum packet latency = 5 (1 samples)
Overall average packet latency = 14.7915 (1 samples)
Overall maximum packet latency = 37 (1 samples)
Overall minimum network latency = 5 (1 samples)
Overall average network latency = 14.7915 (1 samples)
Overall maximum network latency = 37 (1 samples)
Overall minimum flit latency = 5 (1 samples)
Overall average flit latency = 14.7979 (1 samples)
Overall maximum flit latency = 37 (1 samples)
Overall minimum fragmentation = 0 (1 samples)
Overall average fragmentation = 0 (1 samples)
Overall maximum fragmentation = 0 (1 samples)
Overall minimum injected packet rate = 0.464667 (1 samples)
Overall average injected packet rate = 0.500351 (1 samples)
Overall maximum injected packet rate = 0.536 (1 samples)
Overall minimum accepted packet rate = 0.431333 (1 samples)
Overall average accepted packet rate = 0.500415 (1 samples)
Overall maximum accepted packet rate = 0.546667 (1 samples)
Overall minimum injected flit rate = 0.464667 (1 samples)
Overall average injected flit rate = 0.500351 (1 samples)
Overall maximum injected flit rate = 0.536 (1 samples)
Overall minimum accepted flit rate = 0.431333 (1 samples)
Overall average accepted flit rate = 0.500415 (1 samples)
Overall maximum accepted flit rate = 0.546667 (1 samples)
Overall average injected packet size = 1 (1 samples)
Overall average accepted packet size = 1 (1 samples)
Overall average hops = 3.56996 (1 samples)
Total run time 20.9296
