BEGIN Configuration File: ./DF.conf
injection_rate = 0.4;
traffic = uniform;
use_size_power_of_two = no;
routing_function = min;
vc_buf_size = 16;
topology = dragonflynew;
//use_noc_latency = 0;
//hold_switch_for_packet=0;

k = 3;
n = 1;

packet_size  = 1;
num_vcs      = 3;
vc_allocator = separable_input_first; 
sw_allocator = separable_input_first;

alloc_iters   = 1;
sample_period = 500;

wait_for_tail_credit = 0;
use_read_write       = 0;

credit_delay   = 2;
routing_delay  = 0;
vc_alloc_delay = 1;
sw_alloc_delay = 1;
st_final_delay = 1;

input_speedup     = 1;
output_speedup    = 1;
internal_speedup  = 2.0;

warmup_periods = 3;
sim_count      = 1;

priority = none;
injection_rate_uses_flits=1;

END Configuration File: ./DF.conf
Number of nodes: 342
Number of routers: 114
 Dragonfly 
 p = 3 n = 1
 each switch - total radix =  11
 # of switches = 114
 # of channels = 912
 # of nodes ( size of network ) = 342
 # of groups (_g) = 19
 # of routers per group (_a) = 6
Done links
0
Class 0:
Minimum packet latency = 5
Average packet latency = 13.9565
Maximum packet latency = 32
Minimum network latency = 5
Average network latency = 13.9565
Maximum network latency = 32
Slowest packet = 57277
Minimum flit latency = 5
Average flit latency = 13.9565
Maximum flit latency = 32
Slowest flit = 57277
Minimum fragmentation = 0
Average fragmentation = 0
Maximum fragmentation = 0
Minimum injected packet rate = 0.334 (at node 198)
Average injected packet rate = 0.398725
Maximum injected packet rate = 0.464 (at node 195)
Minimum accepted packet rate = 0.31 (at node 314)
Average accepted packet rate = 0.387298
Maximum accepted packet rate = 0.478 (at node 95)
Minimum injected flit rate = 0.334 (at node 198)
Average injected flit rate = 0.398725
Maximum injected flit rate = 0.464 (at node 195)
Minimum accepted flit rate = 0.31 (at node 314)
Average accepted flit rate = 0.387298
Maximum accepted flit rate = 0.478 (at node 95)
Average injected packet length = 1
Average accepted packet length = 1
Total in-flight flits = 1954 (0 measured)
latency change    = 1
throughput change = 1
0
Class 0:
Minimum packet latency = 5
Average packet latency = 13.9408
Maximum packet latency = 32
Minimum network latency = 5
Average network latency = 13.9408
Maximum network latency = 32
Slowest packet = 57277
Minimum flit latency = 5
Average flit latency = 13.9408
Maximum flit latency = 32
Slowest flit = 57277
Minimum fragmentation = 0
Average fragmentation = 0
Maximum fragmentation = 0
Minimum injected packet rate = 0.353 (at node 163)
Average injected packet rate = 0.399383
Maximum injected packet rate = 0.444 (at node 4)
Minimum accepted packet rate = 0.339 (at node 38)
Average accepted packet rate = 0.393763
Maximum accepted packet rate = 0.454 (at node 336)
Minimum injected flit rate = 0.353 (at node 163)
Average injected flit rate = 0.399383
Maximum injected flit rate = 0.444 (at node 4)
Minimum accepted flit rate = 0.339 (at node 38)
Average accepted flit rate = 0.393763
Maximum accepted flit rate = 0.454 (at node 336)
Average injected packet length = 1
Average accepted packet length = 1
Total in-flight flits = 1922 (0 measured)
latency change    = 0.0011254
throughput change = 0.0164183
0
Class 0:
Minimum packet latency = 5
Average packet latency = 13.9642
Maximum packet latency = 29
Minimum network latency = 5
Average network latency = 13.9642
Maximum network latency = 29
Slowest packet = 161105
Minimum flit latency = 5
Average flit latency = 13.9642
Maximum flit latency = 29
Slowest flit = 161105
Minimum fragmentation = 0
Average fragmentation = 0
Maximum fragmentation = 0
Minimum injected packet rate = 0.35 (at node 83)
Average injected packet rate = 0.399836
Maximum injected packet rate = 0.46 (at node 277)
Minimum accepted packet rate = 0.33 (at node 329)
Average accepted packet rate = 0.39976
Maximum accepted packet rate = 0.492 (at node 2)
Minimum injected flit rate = 0.35 (at node 83)
Average injected flit rate = 0.399836
Maximum injected flit rate = 0.46 (at node 277)
Minimum accepted flit rate = 0.33 (at node 329)
Average accepted flit rate = 0.39976
Maximum accepted flit rate = 0.492 (at node 2)
Average injected packet length = 1
Average accepted packet length = 1
Total in-flight flits = 1935 (0 measured)
latency change    = 0.0016774
throughput change = 0.0150017
Warmed up ...Time used is 1500 cycles
1
Class 0:
Minimum packet latency = 5
Average packet latency = 13.9216
Maximum packet latency = 27
Minimum network latency = 5
Average network latency = 13.9216
Maximum network latency = 27
Slowest packet = 207232
Minimum flit latency = 5
Average flit latency = 13.9387
Maximum flit latency = 29
Slowest flit = 202307
Minimum fragmentation = 0
Average fragmentation = 0
Maximum fragmentation = 0
Minimum injected packet rate = 0.348 (at node 209)
Average injected packet rate = 0.400368
Maximum injected packet rate = 0.458 (at node 220)
Minimum accepted packet rate = 0.3 (at node 325)
Average accepted packet rate = 0.400123
Maximum accepted packet rate = 0.486 (at node 254)
Minimum injected flit rate = 0.348 (at node 209)
Average injected flit rate = 0.400368
Maximum injected flit rate = 0.458 (at node 220)
Minimum accepted flit rate = 0.3 (at node 325)
Average accepted flit rate = 0.400123
Maximum accepted flit rate = 0.486 (at node 254)
Average injected packet length = 1
Average accepted packet length = 1
Total in-flight flits = 1977 (1977 measured)
latency change    = 0.00306076
throughput change = 0.000906155
1
Class 0:
Minimum packet latency = 5
Average packet latency = 13.9282
Maximum packet latency = 32
Minimum network latency = 5
Average network latency = 13.9282
Maximum network latency = 32
Slowest packet = 325193
Minimum flit latency = 5
Average flit latency = 13.9366
Maximum flit latency = 32
Slowest flit = 325193
Minimum fragmentation = 0
Average fragmentation = 0
Maximum fragmentation = 0
Minimum injected packet rate = 0.363 (at node 140)
Average injected packet rate = 0.399702
Maximum injected packet rate = 0.439 (at node 341)
Minimum accepted packet rate = 0.326 (at node 325)
Average accepted packet rate = 0.399813
Maximum accepted packet rate = 0.458 (at node 292)
Minimum injected flit rate = 0.363 (at node 140)
Average injected flit rate = 0.399702
Maximum injected flit rate = 0.439 (at node 341)
Minimum accepted flit rate = 0.326 (at node 325)
Average accepted flit rate = 0.399813
Maximum accepted flit rate = 0.458 (at node 292)
Average injected packet length = 1
Average accepted packet length = 1
Total in-flight flits = 1897 (1897 measured)
latency change    = 0.000471566
throughput change = 0.000775216
1
Class 0:
Minimum packet latency = 5
Average packet latency = 13.9384
Maximum packet latency = 32
Minimum network latency = 5
Average network latency = 13.9384
Maximum network latency = 32
Slowest packet = 325193
Minimum flit latency = 5
Average flit latency = 13.944
Maximum flit latency = 32
Slowest flit = 325193
Minimum fragmentation = 0
Average fragmentation = 0
Maximum fragmentation = 0
Minimum injected packet rate = 0.366 (at node 140)
Average injected packet rate = 0.399848
Maximum injected packet rate = 0.435333 (at node 85)
Minimum accepted packet rate = 0.353333 (at node 80)
Average accepted packet rate = 0.399988
Maximum accepted packet rate = 0.449333 (at node 292)
Minimum injected flit rate = 0.366 (at node 140)
Average injected flit rate = 0.399848
Maximum injected flit rate = 0.435333 (at node 85)
Minimum accepted flit rate = 0.353333 (at node 80)
Average accepted flit rate = 0.399988
Maximum accepted flit rate = 0.449333 (at node 292)
Average injected packet length = 1
Average accepted packet length = 1
Total in-flight flits = 1863 (1863 measured)
latency change    = 0.000735218
throughput change = 0.000438609
Draining all recorded packets ...
Draining remaining packets ...
Time taken is 3045 cycles
====== Traffic class 0 ======
Overall minimum packet latency = 5 (1 samples)
Overall average packet latency = 13.9423 (1 samples)
Overall maximum packet latency = 32 (1 samples)
Overall minimum network latency = 5 (1 samples)
Overall average network latency = 13.9423 (1 samples)
Overall maximum network latency = 32 (1 samples)
Overall minimum flit latency = 5 (1 samples)
Overall average flit latency = 13.9463 (1 samples)
Overall maximum flit latency = 32 (1 samples)
Overall minimum fragmentation = 0 (1 samples)
Overall average fragmentation = 0 (1 samples)
Overall maximum fragmentation = 0 (1 samples)
Overall minimum injected packet rate = 0.366 (1 samples)
Overall average injected packet rate = 0.399848 (1 samples)
Overall maximum injected packet rate = 0.435333 (1 samples)
Overall minimum accepted packet rate = 0.353333 (1 samples)
Overall average accepted packet rate = 0.399988 (1 samples)
Overall maximum accepted packet rate = 0.449333 (1 samples)
Overall minimum injected flit rate = 0.366 (1 samples)
Overall average injected flit rate = 0.399848 (1 samples)
Overall maximum injected flit rate = 0.435333 (1 samples)
Overall minimum accepted flit rate = 0.353333 (1 samples)
Overall average accepted flit rate = 0.399988 (1 samples)
Overall maximum accepted flit rate = 0.449333 (1 samples)
Overall average injected packet size = 1 (1 samples)
Overall average accepted packet size = 1 (1 samples)
Overall average hops = 3.56894 (1 samples)
Total run time 16.7816
