BEGIN Configuration File: ./DF.conf
injection_rate = 0.01;
traffic = uniform;
use_size_power_of_two = no;
routing_function = min;
vc_buf_size = 16;
topology = dragonflynew;
//use_noc_latency = 0;
//hold_switch_for_packet=0;

k = 3;
n = 1;

packet_size  = 1;
num_vcs      = 3;
vc_allocator = separable_input_first; 
sw_allocator = separable_input_first;

alloc_iters   = 1;
sample_period = 500;

wait_for_tail_credit = 0;
use_read_write       = 0;

credit_delay   = 2;
routing_delay  = 0;
vc_alloc_delay = 1;
sw_alloc_delay = 1;
st_final_delay = 1;

input_speedup     = 1;
output_speedup    = 1;
internal_speedup  = 2.0;

warmup_periods = 3;
sim_count      = 1;

priority = none;
injection_rate_uses_flits=1;

END Configuration File: ./DF.conf
Number of nodes: 342
Number of routers: 114
 Dragonfly 
 p = 3 n = 1
 each switch - total radix =  11
 # of switches = 114
 # of channels = 912
 # of nodes ( size of network ) = 342
 # of groups (_g) = 19
 # of routers per group (_a) = 6
Done links
0
Class 0:
Minimum packet latency = 5
Average packet latency = 12.682
Maximum packet latency = 16
Minimum network latency = 5
Average network latency = 12.682
Maximum network latency = 16
Slowest packet = 1359
Minimum flit latency = 5
Average flit latency = 12.682
Maximum flit latency = 16
Slowest flit = 1359
Minimum fragmentation = 0
Average fragmentation = 0
Maximum fragmentation = 0
Minimum injected packet rate = 0 (at node 101)
Average injected packet rate = 0.00990058
Maximum injected packet rate = 0.022 (at node 338)
Minimum accepted packet rate = 0 (at node 11)
Average accepted packet rate = 0.00965497
Maximum accepted packet rate = 0.024 (at node 5)
Minimum injected flit rate = 0 (at node 101)
Average injected flit rate = 0.00990058
Maximum injected flit rate = 0.022 (at node 338)
Minimum accepted flit rate = 0 (at node 11)
Average accepted flit rate = 0.00965497
Maximum accepted flit rate = 0.024 (at node 5)
Average injected packet length = 1
Average accepted packet length = 1
Total in-flight flits = 42 (0 measured)
latency change    = 1
throughput change = 1
0
Class 0:
Minimum packet latency = 5
Average packet latency = 12.6843
Maximum packet latency = 16
Minimum network latency = 5
Average network latency = 12.6843
Maximum network latency = 16
Slowest packet = 1359
Minimum flit latency = 5
Average flit latency = 12.6843
Maximum flit latency = 16
Slowest flit = 1359
Minimum fragmentation = 0
Average fragmentation = 0
Maximum fragmentation = 0
Minimum injected packet rate = 0.001 (at node 272)
Average injected packet rate = 0.00988012
Maximum injected packet rate = 0.019 (at node 38)
Minimum accepted packet rate = 0.002 (at node 16)
Average accepted packet rate = 0.00974269
Maximum accepted packet rate = 0.02 (at node 130)
Minimum injected flit rate = 0.001 (at node 272)
Average injected flit rate = 0.00988012
Maximum injected flit rate = 0.019 (at node 38)
Minimum accepted flit rate = 0.002 (at node 16)
Average accepted flit rate = 0.00974269
Maximum accepted flit rate = 0.02 (at node 130)
Average injected packet length = 1
Average accepted packet length = 1
Total in-flight flits = 47 (0 measured)
latency change    = 0.000178395
throughput change = 0.0090036
0
Class 0:
Minimum packet latency = 5
Average packet latency = 12.7627
Maximum packet latency = 15
Minimum network latency = 5
Average network latency = 12.7627
Maximum network latency = 15
Slowest packet = 3437
Minimum flit latency = 5
Average flit latency = 12.7627
Maximum flit latency = 15
Slowest flit = 3437
Minimum fragmentation = 0
Average fragmentation = 0
Maximum fragmentation = 0
Minimum injected packet rate = 0 (at node 128)
Average injected packet rate = 0.00997076
Maximum injected packet rate = 0.024 (at node 13)
Minimum accepted packet rate = 0 (at node 3)
Average accepted packet rate = 0.00998246
Maximum accepted packet rate = 0.026 (at node 87)
Minimum injected flit rate = 0 (at node 128)
Average injected flit rate = 0.00997076
Maximum injected flit rate = 0.024 (at node 13)
Minimum accepted flit rate = 0 (at node 3)
Average accepted flit rate = 0.00998246
Maximum accepted flit rate = 0.026 (at node 87)
Average injected packet length = 1
Average accepted packet length = 1
Total in-flight flits = 45 (0 measured)
latency change    = 0.0061482
throughput change = 0.0240187
Warmed up ...Time used is 1500 cycles
1
Class 0:
Minimum packet latency = 5
Average packet latency = 12.7325
Maximum packet latency = 15
Minimum network latency = 5
Average network latency = 12.7325
Maximum network latency = 15
Slowest packet = 5099
Minimum flit latency = 5
Average flit latency = 12.7479
Maximum flit latency = 15
Slowest flit = 5073
Minimum fragmentation = 0
Average fragmentation = 0
Maximum fragmentation = 0
Minimum injected packet rate = 0 (at node 0)
Average injected packet rate = 0.0098655
Maximum injected packet rate = 0.022 (at node 191)
Minimum accepted packet rate = 0 (at node 42)
Average accepted packet rate = 0.00985965
Maximum accepted packet rate = 0.022 (at node 213)
Minimum injected flit rate = 0 (at node 0)
Average injected flit rate = 0.0098655
Maximum injected flit rate = 0.022 (at node 191)
Minimum accepted flit rate = 0 (at node 42)
Average accepted flit rate = 0.00985965
Maximum accepted flit rate = 0.022 (at node 213)
Average injected packet length = 1
Average accepted packet length = 1
Total in-flight flits = 46 (46 measured)
latency change    = 0.00237671
throughput change = 0.0124555
1
Class 0:
Minimum packet latency = 5
Average packet latency = 12.7516
Maximum packet latency = 15
Minimum network latency = 5
Average network latency = 12.7516
Maximum network latency = 15
Slowest packet = 5099
Minimum flit latency = 5
Average flit latency = 12.7589
Maximum flit latency = 15
Slowest flit = 5073
Minimum fragmentation = 0
Average fragmentation = 0
Maximum fragmentation = 0
Minimum injected packet rate = 0.002 (at node 102)
Average injected packet rate = 0.0100351
Maximum injected packet rate = 0.022 (at node 191)
Minimum accepted packet rate = 0.002 (at node 103)
Average accepted packet rate = 0.0100673
Maximum accepted packet rate = 0.019 (at node 14)
Minimum injected flit rate = 0.002 (at node 102)
Average injected flit rate = 0.0100351
Maximum injected flit rate = 0.022 (at node 191)
Minimum accepted flit rate = 0.002 (at node 103)
Average accepted flit rate = 0.0100673
Maximum accepted flit rate = 0.019 (at node 14)
Average injected packet length = 1
Average accepted packet length = 1
Total in-flight flits = 34 (34 measured)
latency change    = 0.00150086
throughput change = 0.0206216
1
Class 0:
Minimum packet latency = 5
Average packet latency = 12.7276
Maximum packet latency = 16
Minimum network latency = 5
Average network latency = 12.7276
Maximum network latency = 16
Slowest packet = 8700
Minimum flit latency = 5
Average flit latency = 12.7327
Maximum flit latency = 16
Slowest flit = 8700
Minimum fragmentation = 0
Average fragmentation = 0
Maximum fragmentation = 0
Minimum injected packet rate = 0.00266667 (at node 272)
Average injected packet rate = 0.00993372
Maximum injected packet rate = 0.02 (at node 191)
Minimum accepted packet rate = 0.004 (at node 104)
Average accepted packet rate = 0.00991228
Maximum accepted packet rate = 0.0186667 (at node 312)
Minimum injected flit rate = 0.00266667 (at node 272)
Average injected flit rate = 0.00993372
Maximum injected flit rate = 0.02 (at node 191)
Minimum accepted flit rate = 0.004 (at node 104)
Average accepted flit rate = 0.00991228
Maximum accepted flit rate = 0.0186667 (at node 312)
Average injected packet length = 1
Average accepted packet length = 1
Total in-flight flits = 56 (56 measured)
latency change    = 0.00188875
throughput change = 0.0156342
Draining all recorded packets ...
Draining remaining packets ...
Time taken is 3032 cycles
====== Traffic class 0 ======
Overall minimum packet latency = 5 (1 samples)
Overall average packet latency = 12.7294 (1 samples)
Overall maximum packet latency = 16 (1 samples)
Overall minimum network latency = 5 (1 samples)
Overall average network latency = 12.7294 (1 samples)
Overall maximum network latency = 16 (1 samples)
Overall minimum flit latency = 5 (1 samples)
Overall average flit latency = 12.7327 (1 samples)
Overall maximum flit latency = 16 (1 samples)
Overall minimum fragmentation = 0 (1 samples)
Overall average fragmentation = 0 (1 samples)
Overall maximum fragmentation = 0 (1 samples)
Overall minimum injected packet rate = 0.00266667 (1 samples)
Overall average injected packet rate = 0.00993372 (1 samples)
Overall maximum injected packet rate = 0.02 (1 samples)
Overall minimum accepted packet rate = 0.004 (1 samples)
Overall average accepted packet rate = 0.00991228 (1 samples)
Overall maximum accepted packet rate = 0.0186667 (1 samples)
Overall minimum injected flit rate = 0.00266667 (1 samples)
Overall average injected flit rate = 0.00993372 (1 samples)
Overall maximum injected flit rate = 0.02 (1 samples)
Overall minimum accepted flit rate = 0.004 (1 samples)
Overall average accepted flit rate = 0.00991228 (1 samples)
Overall maximum accepted flit rate = 0.0186667 (1 samples)
Overall average injected packet size = 1 (1 samples)
Overall average accepted packet size = 1 (1 samples)
Overall average hops = 3.57123 (1 samples)
Total run time 1.84406
