BEGIN Configuration File: ./DF.conf
injection_rate = 0.1;
traffic = uniform;
use_size_power_of_two = no;
routing_function = min;
vc_buf_size = 16;
topology = dragonflynew;
//use_noc_latency = 0;
//hold_switch_for_packet=0;

k = 3;
n = 1;

packet_size  = 1;
num_vcs      = 3;
vc_allocator = separable_input_first; 
sw_allocator = separable_input_first;

alloc_iters   = 1;
sample_period = 500;

wait_for_tail_credit = 0;
use_read_write       = 0;

credit_delay   = 2;
routing_delay  = 0;
vc_alloc_delay = 1;
sw_alloc_delay = 1;
st_final_delay = 1;

input_speedup     = 1;
output_speedup    = 1;
internal_speedup  = 2.0;

warmup_periods = 3;
sim_count      = 1;

priority = none;
injection_rate_uses_flits=1;

END Configuration File: ./DF.conf
Number of nodes: 342
Number of routers: 114
 Dragonfly 
 p = 3 n = 1
 each switch - total radix =  11
 # of switches = 114
 # of channels = 912
 # of nodes ( size of network ) = 342
 # of groups (_g) = 19
 # of routers per group (_a) = 6
Done links
0
Class 0:
Minimum packet latency = 5
Average packet latency = 12.8708
Maximum packet latency = 18
Minimum network latency = 5
Average network latency = 12.8708
Maximum network latency = 18
Slowest packet = 6287
Minimum flit latency = 5
Average flit latency = 12.8708
Maximum flit latency = 18
Slowest flit = 6287
Minimum fragmentation = 0
Average fragmentation = 0
Maximum fragmentation = 0
Minimum injected packet rate = 0.06 (at node 287)
Average injected packet rate = 0.0985439
Maximum injected packet rate = 0.138 (at node 295)
Minimum accepted packet rate = 0.056 (at node 250)
Average accepted packet rate = 0.0960292
Maximum accepted packet rate = 0.13 (at node 303)
Minimum injected flit rate = 0.06 (at node 287)
Average injected flit rate = 0.0985439
Maximum injected flit rate = 0.138 (at node 295)
Minimum accepted flit rate = 0.056 (at node 250)
Average accepted flit rate = 0.0960292
Maximum accepted flit rate = 0.13 (at node 303)
Average injected packet length = 1
Average accepted packet length = 1
Total in-flight flits = 430 (0 measured)
latency change    = 1
throughput change = 1
0
Class 0:
Minimum packet latency = 5
Average packet latency = 12.8849
Maximum packet latency = 18
Minimum network latency = 5
Average network latency = 12.8849
Maximum network latency = 18
Slowest packet = 6287
Minimum flit latency = 5
Average flit latency = 12.8849
Maximum flit latency = 18
Slowest flit = 6287
Minimum fragmentation = 0
Average fragmentation = 0
Maximum fragmentation = 0
Minimum injected packet rate = 0.074 (at node 287)
Average injected packet rate = 0.0994415
Maximum injected packet rate = 0.134 (at node 208)
Minimum accepted packet rate = 0.07 (at node 40)
Average accepted packet rate = 0.0980819
Maximum accepted packet rate = 0.12 (at node 49)
Minimum injected flit rate = 0.074 (at node 287)
Average injected flit rate = 0.0994415
Maximum injected flit rate = 0.134 (at node 208)
Minimum accepted flit rate = 0.07 (at node 40)
Average accepted flit rate = 0.0980819
Maximum accepted flit rate = 0.12 (at node 49)
Average injected packet length = 1
Average accepted packet length = 1
Total in-flight flits = 465 (0 measured)
latency change    = 0.00108899
throughput change = 0.0209277
0
Class 0:
Minimum packet latency = 5
Average packet latency = 12.9027
Maximum packet latency = 19
Minimum network latency = 5
Average network latency = 12.9027
Maximum network latency = 19
Slowest packet = 39506
Minimum flit latency = 5
Average flit latency = 12.9027
Maximum flit latency = 19
Slowest flit = 39506
Minimum fragmentation = 0
Average fragmentation = 0
Maximum fragmentation = 0
Minimum injected packet rate = 0.064 (at node 341)
Average injected packet rate = 0.0988421
Maximum injected packet rate = 0.136 (at node 273)
Minimum accepted packet rate = 0.062 (at node 137)
Average accepted packet rate = 0.0989591
Maximum accepted packet rate = 0.152 (at node 142)
Minimum injected flit rate = 0.064 (at node 341)
Average injected flit rate = 0.0988421
Maximum injected flit rate = 0.136 (at node 273)
Minimum accepted flit rate = 0.062 (at node 137)
Average accepted flit rate = 0.0989591
Maximum accepted flit rate = 0.152 (at node 142)
Average injected packet length = 1
Average accepted packet length = 1
Total in-flight flits = 445 (0 measured)
latency change    = 0.00137983
throughput change = 0.0088642
Warmed up ...Time used is 1500 cycles
1
Class 0:
Minimum packet latency = 5
Average packet latency = 12.8459
Maximum packet latency = 18
Minimum network latency = 5
Average network latency = 12.8459
Maximum network latency = 18
Slowest packet = 54566
Minimum flit latency = 5
Average flit latency = 12.8572
Maximum flit latency = 18
Slowest flit = 50550
Minimum fragmentation = 0
Average fragmentation = 0
Maximum fragmentation = 0
Minimum injected packet rate = 0.066 (at node 147)
Average injected packet rate = 0.100427
Maximum injected packet rate = 0.148 (at node 154)
Minimum accepted packet rate = 0.058 (at node 251)
Average accepted packet rate = 0.10048
Maximum accepted packet rate = 0.144 (at node 72)
Minimum injected flit rate = 0.066 (at node 147)
Average injected flit rate = 0.100427
Maximum injected flit rate = 0.148 (at node 154)
Minimum accepted flit rate = 0.058 (at node 251)
Average accepted flit rate = 0.10048
Maximum accepted flit rate = 0.144 (at node 72)
Average injected packet length = 1
Average accepted packet length = 1
Total in-flight flits = 436 (436 measured)
latency change    = 0.00442326
throughput change = 0.0151321
1
Class 0:
Minimum packet latency = 5
Average packet latency = 12.8657
Maximum packet latency = 18
Minimum network latency = 5
Average network latency = 12.8657
Maximum network latency = 18
Slowest packet = 54566
Minimum flit latency = 5
Average flit latency = 12.8711
Maximum flit latency = 18
Slowest flit = 50550
Minimum fragmentation = 0
Average fragmentation = 0
Maximum fragmentation = 0
Minimum injected packet rate = 0.074 (at node 14)
Average injected packet rate = 0.100447
Maximum injected packet rate = 0.127 (at node 154)
Minimum accepted packet rate = 0.072 (at node 251)
Average accepted packet rate = 0.100409
Maximum accepted packet rate = 0.127 (at node 327)
Minimum injected flit rate = 0.074 (at node 14)
Average injected flit rate = 0.100447
Maximum injected flit rate = 0.127 (at node 154)
Minimum accepted flit rate = 0.072 (at node 251)
Average accepted flit rate = 0.100409
Maximum accepted flit rate = 0.127 (at node 327)
Average injected packet length = 1
Average accepted packet length = 1
Total in-flight flits = 458 (458 measured)
latency change    = 0.00154076
throughput change = 0.000698893
1
Class 0:
Minimum packet latency = 5
Average packet latency = 12.8726
Maximum packet latency = 18
Minimum network latency = 5
Average network latency = 12.8726
Maximum network latency = 18
Slowest packet = 54566
Minimum flit latency = 5
Average flit latency = 12.8762
Maximum flit latency = 18
Slowest flit = 50550
Minimum fragmentation = 0
Average fragmentation = 0
Maximum fragmentation = 0
Minimum injected packet rate = 0.076 (at node 14)
Average injected packet rate = 0.100446
Maximum injected packet rate = 0.124 (at node 7)
Minimum accepted packet rate = 0.08 (at node 304)
Average accepted packet rate = 0.100415
Maximum accepted packet rate = 0.123333 (at node 33)
Minimum injected flit rate = 0.076 (at node 14)
Average injected flit rate = 0.100446
Maximum injected flit rate = 0.124 (at node 7)
Minimum accepted flit rate = 0.08 (at node 304)
Average accepted flit rate = 0.100415
Maximum accepted flit rate = 0.123333 (at node 33)
Average injected packet length = 1
Average accepted packet length = 1
Total in-flight flits = 461 (461 measured)
latency change    = 0.000541225
throughput change = 5.82377e-05
Draining all recorded packets ...
Draining remaining packets ...
Time taken is 3034 cycles
====== Traffic class 0 ======
Overall minimum packet latency = 5 (1 samples)
Overall average packet latency = 12.8757 (1 samples)
Overall maximum packet latency = 18 (1 samples)
Overall minimum network latency = 5 (1 samples)
Overall average network latency = 12.8757 (1 samples)
Overall maximum network latency = 18 (1 samples)
Overall minimum flit latency = 5 (1 samples)
Overall average flit latency = 12.8809 (1 samples)
Overall maximum flit latency = 18 (1 samples)
Overall minimum fragmentation = 0 (1 samples)
Overall average fragmentation = 0 (1 samples)
Overall maximum fragmentation = 0 (1 samples)
Overall minimum injected packet rate = 0.076 (1 samples)
Overall average injected packet rate = 0.100446 (1 samples)
Overall maximum injected packet rate = 0.124 (1 samples)
Overall minimum accepted packet rate = 0.08 (1 samples)
Overall average accepted packet rate = 0.100415 (1 samples)
Overall maximum accepted packet rate = 0.123333 (1 samples)
Overall minimum injected flit rate = 0.076 (1 samples)
Overall average injected flit rate = 0.100446 (1 samples)
Overall maximum injected flit rate = 0.124 (1 samples)
Overall minimum accepted flit rate = 0.08 (1 samples)
Overall average accepted flit rate = 0.100415 (1 samples)
Overall maximum accepted flit rate = 0.123333 (1 samples)
Overall average injected packet size = 1 (1 samples)
Overall average accepted packet size = 1 (1 samples)
Overall average hops = 3.56927 (1 samples)
Total run time 5.4579
