BEGIN Configuration File: ./DF.conf
injection_rate = 0.6;
traffic = uniform;
use_size_power_of_two = no;
routing_function = min;
vc_buf_size = 16;
topology = dragonflynew;
//use_noc_latency = 0;
//hold_switch_for_packet=0;

k = 3;
n = 1;

packet_size  = 1;
num_vcs      = 3;
vc_allocator = separable_input_first; 
sw_allocator = separable_input_first;

alloc_iters   = 1;
sample_period = 500;

wait_for_tail_credit = 0;
use_read_write       = 0;

credit_delay   = 2;
routing_delay  = 0;
vc_alloc_delay = 1;
sw_alloc_delay = 1;
st_final_delay = 1;

input_speedup     = 1;
output_speedup    = 1;
internal_speedup  = 2.0;

warmup_periods = 3;
sim_count      = 1;

priority = none;
injection_rate_uses_flits=1;

END Configuration File: ./DF.conf
Number of nodes: 342
Number of routers: 114
 Dragonfly 
 p = 3 n = 1
 each switch - total radix =  11
 # of switches = 114
 # of channels = 912
 # of nodes ( size of network ) = 342
 # of groups (_g) = 19
 # of routers per group (_a) = 6
Done links
0
Class 0:
Minimum packet latency = 5
Average packet latency = 16.3084
Maximum packet latency = 53
Minimum network latency = 5
Average network latency = 16.3084
Maximum network latency = 53
Slowest packet = 30236
Minimum flit latency = 5
Average flit latency = 16.3084
Maximum flit latency = 53
Slowest flit = 30236
Minimum fragmentation = 0
Average fragmentation = 0
Maximum fragmentation = 0
Minimum injected packet rate = 0.528 (at node 235)
Average injected packet rate = 0.600263
Maximum injected packet rate = 0.664 (at node 234)
Minimum accepted packet rate = 0.494 (at node 133)
Average accepted packet rate = 0.580491
Maximum accepted packet rate = 0.664 (at node 223)
Minimum injected flit rate = 0.528 (at node 235)
Average injected flit rate = 0.600263
Maximum injected flit rate = 0.664 (at node 234)
Minimum accepted flit rate = 0.494 (at node 133)
Average accepted flit rate = 0.580491
Maximum accepted flit rate = 0.664 (at node 223)
Average injected packet length = 1
Average accepted packet length = 1
Total in-flight flits = 3381 (0 measured)
latency change    = 1
throughput change = 1
0
Class 0:
Minimum packet latency = 5
Average packet latency = 16.3817
Maximum packet latency = 53
Minimum network latency = 5
Average network latency = 16.3817
Maximum network latency = 53
Slowest packet = 30236
Minimum flit latency = 5
Average flit latency = 16.3817
Maximum flit latency = 53
Slowest flit = 30236
Minimum fragmentation = 0
Average fragmentation = 0
Maximum fragmentation = 0
Minimum injected packet rate = 0.552 (at node 153)
Average injected packet rate = 0.599778
Maximum injected packet rate = 0.643 (at node 179)
Minimum accepted packet rate = 0.529 (at node 333)
Average accepted packet rate = 0.589757
Maximum accepted packet rate = 0.672 (at node 107)
Minimum injected flit rate = 0.552 (at node 153)
Average injected flit rate = 0.599778
Maximum injected flit rate = 0.643 (at node 179)
Minimum accepted flit rate = 0.529 (at node 333)
Average accepted flit rate = 0.589757
Maximum accepted flit rate = 0.672 (at node 107)
Average injected packet length = 1
Average accepted packet length = 1
Total in-flight flits = 3427 (0 measured)
latency change    = 0.00447369
throughput change = 0.0157117
0
Class 0:
Minimum packet latency = 5
Average packet latency = 16.4472
Maximum packet latency = 46
Minimum network latency = 5
Average network latency = 16.4472
Maximum network latency = 46
Slowest packet = 220272
Minimum flit latency = 5
Average flit latency = 16.4472
Maximum flit latency = 46
Slowest flit = 220272
Minimum fragmentation = 0
Average fragmentation = 0
Maximum fragmentation = 0
Minimum injected packet rate = 0.528 (at node 266)
Average injected packet rate = 0.599836
Maximum injected packet rate = 0.652 (at node 208)
Minimum accepted packet rate = 0.51 (at node 214)
Average accepted packet rate = 0.600193
Maximum accepted packet rate = 0.714 (at node 129)
Minimum injected flit rate = 0.528 (at node 266)
Average injected flit rate = 0.599836
Maximum injected flit rate = 0.652 (at node 208)
Minimum accepted flit rate = 0.51 (at node 214)
Average accepted flit rate = 0.600193
Maximum accepted flit rate = 0.714 (at node 129)
Average injected packet length = 1
Average accepted packet length = 1
Total in-flight flits = 3366 (0 measured)
latency change    = 0.00398594
throughput change = 0.0173872
Warmed up ...Time used is 1500 cycles
1
Class 0:
Minimum packet latency = 5
Average packet latency = 16.3537
Maximum packet latency = 49
Minimum network latency = 5
Average network latency = 16.3537
Maximum network latency = 49
Slowest packet = 370702
Minimum flit latency = 5
Average flit latency = 16.395
Maximum flit latency = 49
Slowest flit = 370702
Minimum fragmentation = 0
Average fragmentation = 0
Maximum fragmentation = 0
Minimum injected packet rate = 0.544 (at node 24)
Average injected packet rate = 0.600023
Maximum injected packet rate = 0.666 (at node 87)
Minimum accepted packet rate = 0.508 (at node 212)
Average accepted packet rate = 0.599678
Maximum accepted packet rate = 0.722 (at node 251)
Minimum injected flit rate = 0.544 (at node 24)
Average injected flit rate = 0.600023
Maximum injected flit rate = 0.666 (at node 87)
Minimum accepted flit rate = 0.508 (at node 212)
Average accepted flit rate = 0.599678
Maximum accepted flit rate = 0.722 (at node 251)
Average injected packet length = 1
Average accepted packet length = 1
Total in-flight flits = 3425 (3425 measured)
latency change    = 0.00571981
throughput change = 0.00085816
1
Class 0:
Minimum packet latency = 5
Average packet latency = 16.4304
Maximum packet latency = 51
Minimum network latency = 5
Average network latency = 16.4304
Maximum network latency = 51
Slowest packet = 426683
Minimum flit latency = 5
Average flit latency = 16.4498
Maximum flit latency = 51
Slowest flit = 426683
Minimum fragmentation = 0
Average fragmentation = 0
Maximum fragmentation = 0
Minimum injected packet rate = 0.552 (at node 339)
Average injected packet rate = 0.600257
Maximum injected packet rate = 0.643 (at node 271)
Minimum accepted packet rate = 0.525 (at node 187)
Average accepted packet rate = 0.600205
Maximum accepted packet rate = 0.667 (at node 118)
Minimum injected flit rate = 0.552 (at node 339)
Average injected flit rate = 0.600257
Maximum injected flit rate = 0.643 (at node 271)
Minimum accepted flit rate = 0.525 (at node 187)
Average accepted flit rate = 0.600205
Maximum accepted flit rate = 0.667 (at node 118)
Average injected packet length = 1
Average accepted packet length = 1
Total in-flight flits = 3384 (3384 measured)
latency change    = 0.00466899
throughput change = 0.000876894
1
Class 0:
Minimum packet latency = 5
Average packet latency = 16.437
Maximum packet latency = 51
Minimum network latency = 5
Average network latency = 16.437
Maximum network latency = 51
Slowest packet = 426683
Minimum flit latency = 5
Average flit latency = 16.4499
Maximum flit latency = 51
Slowest flit = 426683
Minimum fragmentation = 0
Average fragmentation = 0
Maximum fragmentation = 0
Minimum injected packet rate = 0.565333 (at node 339)
Average injected packet rate = 0.599998
Maximum injected packet rate = 0.638 (at node 85)
Minimum accepted packet rate = 0.542667 (at node 320)
Average accepted packet rate = 0.599856
Maximum accepted packet rate = 0.662 (at node 229)
Minimum injected flit rate = 0.565333 (at node 339)
Average injected flit rate = 0.599998
Maximum injected flit rate = 0.638 (at node 85)
Minimum accepted flit rate = 0.542667 (at node 320)
Average accepted flit rate = 0.599856
Maximum accepted flit rate = 0.662 (at node 229)
Average injected packet length = 1
Average accepted packet length = 1
Total in-flight flits = 3439 (3439 measured)
latency change    = 0.000401208
throughput change = 0.000581686
Draining all recorded packets ...
Draining remaining packets ...
Time taken is 3060 cycles
====== Traffic class 0 ======
Overall minimum packet latency = 5 (1 samples)
Overall average packet latency = 16.4549 (1 samples)
Overall maximum packet latency = 57 (1 samples)
Overall minimum network latency = 5 (1 samples)
Overall average network latency = 16.4549 (1 samples)
Overall maximum network latency = 57 (1 samples)
Overall minimum flit latency = 5 (1 samples)
Overall average flit latency = 16.4636 (1 samples)
Overall maximum flit latency = 57 (1 samples)
Overall minimum fragmentation = 0 (1 samples)
Overall average fragmentation = 0 (1 samples)
Overall maximum fragmentation = 0 (1 samples)
Overall minimum injected packet rate = 0.565333 (1 samples)
Overall average injected packet rate = 0.599998 (1 samples)
Overall maximum injected packet rate = 0.638 (1 samples)
Overall minimum accepted packet rate = 0.542667 (1 samples)
Overall average accepted packet rate = 0.599856 (1 samples)
Overall maximum accepted packet rate = 0.662 (1 samples)
Overall minimum injected flit rate = 0.565333 (1 samples)
Overall average injected flit rate = 0.599998 (1 samples)
Overall maximum injected flit rate = 0.638 (1 samples)
Overall minimum accepted flit rate = 0.542667 (1 samples)
Overall average accepted flit rate = 0.599856 (1 samples)
Overall maximum accepted flit rate = 0.662 (1 samples)
Overall average injected packet size = 1 (1 samples)
Overall average accepted packet size = 1 (1 samples)
Overall average hops = 3.57067 (1 samples)
Total run time 25.6859
