BEGIN Configuration File: ./DF.conf
injection_rate = 0.7;
traffic = uniform;
use_size_power_of_two = no;
routing_function = min;
vc_buf_size = 16;
topology = dragonflynew;
//use_noc_latency = 0;
//hold_switch_for_packet=0;

k = 3;
n = 1;

packet_size  = 1;
num_vcs      = 3;
vc_allocator = separable_input_first; 
sw_allocator = separable_input_first;

alloc_iters   = 1;
sample_period = 500;

wait_for_tail_credit = 0;
use_read_write       = 0;

credit_delay   = 2;
routing_delay  = 0;
vc_alloc_delay = 1;
sw_alloc_delay = 1;
st_final_delay = 1;

input_speedup     = 1;
output_speedup    = 1;
internal_speedup  = 2.0;

warmup_periods = 3;
sim_count      = 1;

priority = none;
injection_rate_uses_flits=1;

END Configuration File: ./DF.conf
Number of nodes: 342
Number of routers: 114
 Dragonfly 
 p = 3 n = 1
 each switch - total radix =  11
 # of switches = 114
 # of channels = 912
 # of nodes ( size of network ) = 342
 # of groups (_g) = 19
 # of routers per group (_a) = 6
Done links
0
Class 0:
Minimum packet latency = 5
Average packet latency = 20.797
Maximum packet latency = 102
Minimum network latency = 5
Average network latency = 20.797
Maximum network latency = 102
Slowest packet = 95081
Minimum flit latency = 5
Average flit latency = 20.797
Maximum flit latency = 102
Slowest flit = 95081
Minimum fragmentation = 0
Average fragmentation = 0
Maximum fragmentation = 0
Minimum injected packet rate = 0.632 (at node 150)
Average injected packet rate = 0.699637
Maximum injected packet rate = 0.76 (at node 31)
Minimum accepted packet rate = 0.584 (at node 1)
Average accepted packet rate = 0.668936
Maximum accepted packet rate = 0.79 (at node 120)
Minimum injected flit rate = 0.632 (at node 150)
Average injected flit rate = 0.699637
Maximum injected flit rate = 0.76 (at node 31)
Minimum accepted flit rate = 0.584 (at node 1)
Average accepted flit rate = 0.668936
Maximum accepted flit rate = 0.79 (at node 120)
Average injected packet length = 1
Average accepted packet length = 1
Total in-flight flits = 5250 (0 measured)
latency change    = 1
throughput change = 1
0
Class 0:
Minimum packet latency = 5
Average packet latency = 21.2149
Maximum packet latency = 166
Minimum network latency = 5
Average network latency = 21.2118
Maximum network latency = 166
Slowest packet = 124857
Minimum flit latency = 5
Average flit latency = 21.2118
Maximum flit latency = 166
Slowest flit = 124857
Minimum fragmentation = 0
Average fragmentation = 0
Maximum fragmentation = 0
Minimum injected packet rate = 0.646 (at node 150)
Average injected packet rate = 0.699398
Maximum injected packet rate = 0.743 (at node 138)
Minimum accepted packet rate = 0.614 (at node 96)
Average accepted packet rate = 0.683868
Maximum accepted packet rate = 0.762 (at node 280)
Minimum injected flit rate = 0.646 (at node 150)
Average injected flit rate = 0.699398
Maximum injected flit rate = 0.743 (at node 138)
Minimum accepted flit rate = 0.614 (at node 96)
Average accepted flit rate = 0.683868
Maximum accepted flit rate = 0.762 (at node 280)
Average injected packet length = 1
Average accepted packet length = 1
Total in-flight flits = 5311 (0 measured)
latency change    = 0.0196985
throughput change = 0.0218357
0
Class 0:
Minimum packet latency = 5
Average packet latency = 21.5883
Maximum packet latency = 116
Minimum network latency = 5
Average network latency = 21.5882
Maximum network latency = 116
Slowest packet = 297010
Minimum flit latency = 5
Average flit latency = 21.5882
Maximum flit latency = 116
Slowest flit = 297010
Minimum fragmentation = 0
Average fragmentation = 0
Maximum fragmentation = 0
Minimum injected packet rate = 0.64 (at node 231)
Average injected packet rate = 0.698871
Maximum injected packet rate = 0.754 (at node 81)
Minimum accepted packet rate = 0.59 (at node 293)
Average accepted packet rate = 0.699977
Maximum accepted packet rate = 0.798 (at node 39)
Minimum injected flit rate = 0.64 (at node 231)
Average injected flit rate = 0.698871
Maximum injected flit rate = 0.754 (at node 81)
Minimum accepted flit rate = 0.59 (at node 293)
Average accepted flit rate = 0.699977
Maximum accepted flit rate = 0.798 (at node 39)
Average injected packet length = 1
Average accepted packet length = 1
Total in-flight flits = 5122 (0 measured)
latency change    = 0.0172976
throughput change = 0.0230125
Warmed up ...Time used is 1500 cycles
1
Class 0:
Minimum packet latency = 5
Average packet latency = 21.1779
Maximum packet latency = 83
Minimum network latency = 5
Average network latency = 21.1779
Maximum network latency = 83
Slowest packet = 427529
Minimum flit latency = 5
Average flit latency = 21.3101
Maximum flit latency = 83
Slowest flit = 427529
Minimum fragmentation = 0
Average fragmentation = 0
Maximum fragmentation = 0
Minimum injected packet rate = 0.65 (at node 151)
Average injected packet rate = 0.699292
Maximum injected packet rate = 0.76 (at node 101)
Minimum accepted packet rate = 0.608 (at node 236)
Average accepted packet rate = 0.699088
Maximum accepted packet rate = 0.824 (at node 227)
Minimum injected flit rate = 0.65 (at node 151)
Average injected flit rate = 0.699292
Maximum injected flit rate = 0.76 (at node 101)
Minimum accepted flit rate = 0.608 (at node 236)
Average accepted flit rate = 0.699088
Maximum accepted flit rate = 0.824 (at node 227)
Average injected packet length = 1
Average accepted packet length = 1
Total in-flight flits = 5157 (5157 measured)
latency change    = 0.019381
throughput change = 0.0012715
1
Class 0:
Minimum packet latency = 5
Average packet latency = 21.6856
Maximum packet latency = 125
Minimum network latency = 5
Average network latency = 21.6853
Maximum network latency = 125
Slowest packet = 542420
Minimum flit latency = 5
Average flit latency = 21.7406
Maximum flit latency = 125
Slowest flit = 542420
Minimum fragmentation = 0
Average fragmentation = 0
Maximum fragmentation = 0
Minimum injected packet rate = 0.65 (at node 225)
Average injected packet rate = 0.699965
Maximum injected packet rate = 0.743 (at node 271)
Minimum accepted packet rate = 0.611 (at node 65)
Average accepted packet rate = 0.698456
Maximum accepted packet rate = 0.761 (at node 290)
Minimum injected flit rate = 0.65 (at node 225)
Average injected flit rate = 0.699965
Maximum injected flit rate = 0.743 (at node 271)
Minimum accepted flit rate = 0.611 (at node 65)
Average accepted flit rate = 0.698456
Maximum accepted flit rate = 0.761 (at node 290)
Average injected packet length = 1
Average accepted packet length = 1
Total in-flight flits = 5640 (5640 measured)
latency change    = 0.0234145
throughput change = 0.00090425
1
Class 0:
Minimum packet latency = 5
Average packet latency = 22.1139
Maximum packet latency = 179
Minimum network latency = 5
Average network latency = 22.096
Maximum network latency = 177
Slowest packet = 641629
Minimum flit latency = 5
Average flit latency = 22.1269
Maximum flit latency = 177
Slowest flit = 641629
Minimum fragmentation = 0
Average fragmentation = 0
Maximum fragmentation = 0
Minimum injected packet rate = 0.666667 (at node 178)
Average injected packet rate = 0.700172
Maximum injected packet rate = 0.728 (at node 43)
Minimum accepted packet rate = 0.637333 (at node 306)
Average accepted packet rate = 0.699581
Maximum accepted packet rate = 0.762667 (at node 41)
Minimum injected flit rate = 0.666667 (at node 178)
Average injected flit rate = 0.700172
Maximum injected flit rate = 0.728 (at node 43)
Minimum accepted flit rate = 0.637333 (at node 306)
Average accepted flit rate = 0.699581
Maximum accepted flit rate = 0.762667 (at node 41)
Average injected packet length = 1
Average accepted packet length = 1
Total in-flight flits = 5425 (5425 measured)
latency change    = 0.0193677
throughput change = 0.00160776
Draining all recorded packets ...
Draining remaining packets ...
Time taken is 3155 cycles
====== Traffic class 0 ======
Overall minimum packet latency = 5 (1 samples)
Overall average packet latency = 22.1833 (1 samples)
Overall maximum packet latency = 179 (1 samples)
Overall minimum network latency = 5 (1 samples)
Overall average network latency = 22.1648 (1 samples)
Overall maximum network latency = 177 (1 samples)
Overall minimum flit latency = 5 (1 samples)
Overall average flit latency = 22.1875 (1 samples)
Overall maximum flit latency = 177 (1 samples)
Overall minimum fragmentation = 0 (1 samples)
Overall average fragmentation = 0 (1 samples)
Overall maximum fragmentation = 0 (1 samples)
Overall minimum injected packet rate = 0.666667 (1 samples)
Overall average injected packet rate = 0.700172 (1 samples)
Overall maximum injected packet rate = 0.728 (1 samples)
Overall minimum accepted packet rate = 0.637333 (1 samples)
Overall average accepted packet rate = 0.699581 (1 samples)
Overall maximum accepted packet rate = 0.762667 (1 samples)
Overall minimum injected flit rate = 0.666667 (1 samples)
Overall average injected flit rate = 0.700172 (1 samples)
Overall maximum injected flit rate = 0.728 (1 samples)
Overall minimum accepted flit rate = 0.637333 (1 samples)
Overall average accepted flit rate = 0.699581 (1 samples)
Overall maximum accepted flit rate = 0.762667 (1 samples)
Overall average injected packet size = 1 (1 samples)
Overall average accepted packet size = 1 (1 samples)
Overall average hops = 3.57237 (1 samples)
Total run time 31.9462
