BEGIN Configuration File: ./DF.conf
injection_rate = 0.3;
traffic = uniform;
use_size_power_of_two = no;
routing_function = min;
vc_buf_size = 16;
topology = dragonflynew;
//use_noc_latency = 0;
//hold_switch_for_packet=0;

k = 3;
n = 1;

packet_size  = 1;
num_vcs      = 3;
vc_allocator = separable_input_first; 
sw_allocator = separable_input_first;

alloc_iters   = 1;
sample_period = 500;

wait_for_tail_credit = 0;
use_read_write       = 0;

credit_delay   = 2;
routing_delay  = 0;
vc_alloc_delay = 1;
sw_alloc_delay = 1;
st_final_delay = 1;

input_speedup     = 1;
output_speedup    = 1;
internal_speedup  = 2.0;

warmup_periods = 3;
sim_count      = 1;

priority = none;
injection_rate_uses_flits=1;

END Configuration File: ./DF.conf
Number of nodes: 342
Number of routers: 114
 Dragonfly 
 p = 3 n = 1
 each switch - total radix =  11
 # of switches = 114
 # of channels = 912
 # of nodes ( size of network ) = 342
 # of groups (_g) = 19
 # of routers per group (_a) = 6
Done links
0
Class 0:
Minimum packet latency = 5
Average packet latency = 13.4374
Maximum packet latency = 25
Minimum network latency = 5
Average network latency = 13.4374
Maximum network latency = 25
Slowest packet = 47396
Minimum flit latency = 5
Average flit latency = 13.4374
Maximum flit latency = 25
Slowest flit = 47396
Minimum fragmentation = 0
Average fragmentation = 0
Maximum fragmentation = 0
Minimum injected packet rate = 0.242 (at node 97)
Average injected packet rate = 0.298936
Maximum injected packet rate = 0.364 (at node 195)
Minimum accepted packet rate = 0.218 (at node 238)
Average accepted packet rate = 0.29083
Maximum accepted packet rate = 0.368 (at node 92)
Minimum injected flit rate = 0.242 (at node 97)
Average injected flit rate = 0.298936
Maximum injected flit rate = 0.364 (at node 195)
Minimum accepted flit rate = 0.218 (at node 238)
Average accepted flit rate = 0.29083
Maximum accepted flit rate = 0.368 (at node 92)
Average injected packet length = 1
Average accepted packet length = 1
Total in-flight flits = 1386 (0 measured)
latency change    = 1
throughput change = 1
0
Class 0:
Minimum packet latency = 5
Average packet latency = 13.4593
Maximum packet latency = 26
Minimum network latency = 5
Average network latency = 13.4593
Maximum network latency = 26
Slowest packet = 83574
Minimum flit latency = 5
Average flit latency = 13.4593
Maximum flit latency = 26
Slowest flit = 83574
Minimum fragmentation = 0
Average fragmentation = 0
Maximum fragmentation = 0
Minimum injected packet rate = 0.246 (at node 163)
Average injected packet rate = 0.299149
Maximum injected packet rate = 0.346 (at node 4)
Minimum accepted packet rate = 0.244 (at node 238)
Average accepted packet rate = 0.295091
Maximum accepted packet rate = 0.349 (at node 92)
Minimum injected flit rate = 0.246 (at node 163)
Average injected flit rate = 0.299149
Maximum injected flit rate = 0.346 (at node 4)
Minimum accepted flit rate = 0.244 (at node 238)
Average accepted flit rate = 0.295091
Maximum accepted flit rate = 0.349 (at node 92)
Average injected packet length = 1
Average accepted packet length = 1
Total in-flight flits = 1388 (0 measured)
latency change    = 0.00162749
throughput change = 0.014437
0
Class 0:
Minimum packet latency = 5
Average packet latency = 13.4364
Maximum packet latency = 24
Minimum network latency = 5
Average network latency = 13.4364
Maximum network latency = 24
Slowest packet = 117500
Minimum flit latency = 5
Average flit latency = 13.4364
Maximum flit latency = 24
Slowest flit = 117500
Minimum fragmentation = 0
Average fragmentation = 0
Maximum fragmentation = 0
Minimum injected packet rate = 0.244 (at node 176)
Average injected packet rate = 0.299749
Maximum injected packet rate = 0.358 (at node 277)
Minimum accepted packet rate = 0.244 (at node 325)
Average accepted packet rate = 0.299626
Maximum accepted packet rate = 0.366 (at node 265)
Minimum injected flit rate = 0.244 (at node 176)
Average injected flit rate = 0.299749
Maximum injected flit rate = 0.358 (at node 277)
Minimum accepted flit rate = 0.244 (at node 325)
Average accepted flit rate = 0.299626
Maximum accepted flit rate = 0.366 (at node 265)
Average injected packet length = 1
Average accepted packet length = 1
Total in-flight flits = 1409 (0 measured)
latency change    = 0.00170709
throughput change = 0.0151358
Warmed up ...Time used is 1500 cycles
1
Class 0:
Minimum packet latency = 5
Average packet latency = 13.4623
Maximum packet latency = 24
Minimum network latency = 5
Average network latency = 13.4623
Maximum network latency = 24
Slowest packet = 170393
Minimum flit latency = 5
Average flit latency = 13.4755
Maximum flit latency = 24
Slowest flit = 170393
Minimum fragmentation = 0
Average fragmentation = 0
Maximum fragmentation = 0
Minimum injected packet rate = 0.248 (at node 209)
Average injected packet rate = 0.301117
Maximum injected packet rate = 0.356 (at node 15)
Minimum accepted packet rate = 0.228 (at node 120)
Average accepted packet rate = 0.300801
Maximum accepted packet rate = 0.36 (at node 268)
Minimum injected flit rate = 0.248 (at node 209)
Average injected flit rate = 0.301117
Maximum injected flit rate = 0.356 (at node 15)
Minimum accepted flit rate = 0.228 (at node 120)
Average accepted flit rate = 0.300801
Maximum accepted flit rate = 0.36 (at node 268)
Average injected packet length = 1
Average accepted packet length = 1
Total in-flight flits = 1463 (1463 measured)
latency change    = 0.00192602
throughput change = 0.00390769
1
Class 0:
Minimum packet latency = 5
Average packet latency = 13.4636
Maximum packet latency = 30
Minimum network latency = 5
Average network latency = 13.4636
Maximum network latency = 30
Slowest packet = 221414
Minimum flit latency = 5
Average flit latency = 13.4702
Maximum flit latency = 30
Slowest flit = 221414
Minimum fragmentation = 0
Average fragmentation = 0
Maximum fragmentation = 0
Minimum injected packet rate = 0.266 (at node 209)
Average injected packet rate = 0.299953
Maximum injected packet rate = 0.336 (at node 268)
Minimum accepted packet rate = 0.236 (at node 157)
Average accepted packet rate = 0.3
Maximum accepted packet rate = 0.343 (at node 164)
Minimum injected flit rate = 0.266 (at node 209)
Average injected flit rate = 0.299953
Maximum injected flit rate = 0.336 (at node 268)
Minimum accepted flit rate = 0.236 (at node 157)
Average accepted flit rate = 0.3
Maximum accepted flit rate = 0.343 (at node 164)
Average injected packet length = 1
Average accepted packet length = 1
Total in-flight flits = 1393 (1393 measured)
latency change    = 9.41472e-05
throughput change = 0.00267057
1
Class 0:
Minimum packet latency = 5
Average packet latency = 13.459
Maximum packet latency = 30
Minimum network latency = 5
Average network latency = 13.459
Maximum network latency = 30
Slowest packet = 221414
Minimum flit latency = 5
Average flit latency = 13.4634
Maximum flit latency = 30
Slowest flit = 221414
Minimum fragmentation = 0
Average fragmentation = 0
Maximum fragmentation = 0
Minimum injected packet rate = 0.266 (at node 92)
Average injected packet rate = 0.299756
Maximum injected packet rate = 0.336 (at node 268)
Minimum accepted packet rate = 0.25 (at node 157)
Average accepted packet rate = 0.299805
Maximum accepted packet rate = 0.336667 (at node 164)
Minimum injected flit rate = 0.266 (at node 92)
Average injected flit rate = 0.299756
Maximum injected flit rate = 0.336 (at node 268)
Minimum accepted flit rate = 0.25 (at node 157)
Average accepted flit rate = 0.299805
Maximum accepted flit rate = 0.336667 (at node 164)
Average injected packet length = 1
Average accepted packet length = 1
Total in-flight flits = 1384 (1384 measured)
latency change    = 0.000344091
throughput change = 0.000650195
Draining all recorded packets ...
Draining remaining packets ...
Time taken is 3041 cycles
====== Traffic class 0 ======
Overall minimum packet latency = 5 (1 samples)
Overall average packet latency = 13.462 (1 samples)
Overall maximum packet latency = 30 (1 samples)
Overall minimum network latency = 5 (1 samples)
Overall average network latency = 13.462 (1 samples)
Overall maximum network latency = 30 (1 samples)
Overall minimum flit latency = 5 (1 samples)
Overall average flit latency = 13.4661 (1 samples)
Overall maximum flit latency = 30 (1 samples)
Overall minimum fragmentation = 0 (1 samples)
Overall average fragmentation = 0 (1 samples)
Overall maximum fragmentation = 0 (1 samples)
Overall minimum injected packet rate = 0.266 (1 samples)
Overall average injected packet rate = 0.299756 (1 samples)
Overall maximum injected packet rate = 0.336 (1 samples)
Overall minimum accepted packet rate = 0.25 (1 samples)
Overall average accepted packet rate = 0.299805 (1 samples)
Overall maximum accepted packet rate = 0.336667 (1 samples)
Overall minimum injected flit rate = 0.266 (1 samples)
Overall average injected flit rate = 0.299756 (1 samples)
Overall maximum injected flit rate = 0.336 (1 samples)
Overall minimum accepted flit rate = 0.25 (1 samples)
Overall average accepted flit rate = 0.299805 (1 samples)
Overall maximum accepted flit rate = 0.336667 (1 samples)
Overall average injected packet size = 1 (1 samples)
Overall average accepted packet size = 1 (1 samples)
Overall average hops = 3.57233 (1 samples)
Total run time 12.5771
