BEGIN Configuration File: ./DF.conf
injection_rate = 0.3;
traffic = bitrev;
use_size_power_of_two = yes;
routing_function = ugal;
vc_buf_size = 16;
topology = dragonflynew;
use_noc_latency = 0;
hold_switch_for_packet=0;

k = 7;
n = 1;

packet_size  = 1;
num_vcs      = 3;
vc_allocator = separable_input_first; 
sw_allocator = separable_input_first;

alloc_iters   = 1;
sample_period = 500;

wait_for_tail_credit = 0;
use_read_write       = 0;

credit_delay   = 2;
routing_delay  = 0;
vc_alloc_delay = 1;
sw_alloc_delay = 1;
st_final_delay = 1;

input_speedup     = 1;
output_speedup    = 1;
internal_speedup  = 2.0;

warmup_periods = 3;
sim_count      = 1;

priority = none;
injection_rate_uses_flits=1;

END Configuration File: ./DF.conf
Number of nodes: 9702
Number of routers: 1386
 Dragonfly 
 p = 7 n = 1
 each switch - total radix =  27
 # of switches = 1386
 # of channels = 27720
 # of nodes ( size of network ) = 9702
 # of groups (_g) = 99
 # of routers per group (_a) = 14
Done links


#################################################################################
0
Class 0:
Minimum packet latency = 5
Average packet latency = 14.977
Maximum packet latency = 38
Minimum network latency = 5
Average network latency = 14.977
Maximum network latency = 38
Slowest packet = 266537
Minimum flit latency = 5
Average flit latency = 14.977
Maximum flit latency = 38
Slowest flit = 266537
Minimum fragmentation = 0
Average fragmentation = 0
Maximum fragmentation = 0
Minimum injected packet rate = 0.228 (at node 7550)
Average injected packet rate = 0.299721
Maximum injected packet rate = 0.376 (at node 4197)
Minimum accepted packet rate = 0.22 (at node 4055)
Average accepted packet rate = 0.29065
Maximum accepted packet rate = 0.366 (at node 1199)
Minimum injected flit rate = 0.228 (at node 7550)
Average injected flit rate = 0.299721
Maximum injected flit rate = 0.376 (at node 4197)
Minimum accepted flit rate = 0.22 (at node 4055)
Average accepted flit rate = 0.29065
Maximum accepted flit rate = 0.366 (at node 1199)
Average injected packet length = 1
Average accepted packet length = 1
Total in-flight flits = 37156 (0 measured)
latency change    = 1
throughput change = 1
0
Class 0:
Minimum packet latency = 5
Average packet latency = 15.0011
Maximum packet latency = 38
Minimum network latency = 5
Average network latency = 15.0011
Maximum network latency = 38
Slowest packet = 266537
Minimum flit latency = 5
Average flit latency = 15.0011
Maximum flit latency = 38
Slowest flit = 266537
Minimum fragmentation = 0
Average fragmentation = 0
Maximum fragmentation = 0
Minimum injected packet rate = 0.252 (at node 2677)
Average injected packet rate = 0.299846
Maximum injected packet rate = 0.359 (at node 3923)
Minimum accepted packet rate = 0.246 (at node 931)
Average accepted packet rate = 0.29538
Maximum accepted packet rate = 0.351 (at node 5096)
Minimum injected flit rate = 0.252 (at node 2677)
Average injected flit rate = 0.299846
Maximum injected flit rate = 0.359 (at node 3923)
Minimum accepted flit rate = 0.246 (at node 931)
Average accepted flit rate = 0.29538
Maximum accepted flit rate = 0.351 (at node 5096)
Average injected packet length = 1
Average accepted packet length = 1
Total in-flight flits = 36583 (0 measured)
latency change    = 0.00160737
throughput change = 0.0160152
0
Class 0:
Minimum packet latency = 5
Average packet latency = 15.0267
Maximum packet latency = 34
Minimum network latency = 5
Average network latency = 15.0267
Maximum network latency = 34
Slowest packet = 3552158
Minimum flit latency = 5
Average flit latency = 15.0267
Maximum flit latency = 34
Slowest flit = 3552158
Minimum fragmentation = 0
Average fragmentation = 0
Maximum fragmentation = 0
Minimum injected packet rate = 0.216 (at node 3962)
Average injected packet rate = 0.300108
Maximum injected packet rate = 0.372 (at node 2154)
Minimum accepted packet rate = 0.224 (at node 3038)
Average accepted packet rate = 0.300042
Maximum accepted packet rate = 0.38 (at node 4863)
Minimum injected flit rate = 0.216 (at node 3962)
Average injected flit rate = 0.300108
Maximum injected flit rate = 0.372 (at node 2154)
Minimum accepted flit rate = 0.224 (at node 3038)
Average accepted flit rate = 0.300042
Maximum accepted flit rate = 0.38 (at node 4863)
Average injected packet length = 1
Average accepted packet length = 1
Total in-flight flits = 36853 (0 measured)
latency change    = 0.00170376
throughput change = 0.0155378
Warmed up ...Time used is 1500 cycles
1
Class 0:
Minimum packet latency = 5
Average packet latency = 14.9983
Maximum packet latency = 35
Minimum network latency = 5
Average network latency = 14.9983
Maximum network latency = 35
Slowest packet = 4531812
Minimum flit latency = 5
Average flit latency = 15.0209
Maximum flit latency = 35
Slowest flit = 4531812
Minimum fragmentation = 0
Average fragmentation = 0
Maximum fragmentation = 0
Minimum injected packet rate = 0.226 (at node 6621)
Average injected packet rate = 0.299799
Maximum injected packet rate = 0.378 (at node 3013)
Minimum accepted packet rate = 0.228 (at node 2698)
Average accepted packet rate = 0.299815
Maximum accepted packet rate = 0.378 (at node 2215)
Minimum injected flit rate = 0.226 (at node 6621)
Average injected flit rate = 0.299799
Maximum injected flit rate = 0.378 (at node 3013)
Minimum accepted flit rate = 0.228 (at node 2698)
Average accepted flit rate = 0.299815
Maximum accepted flit rate = 0.378 (at node 2215)
Average injected packet length = 1
Average accepted packet length = 1
Total in-flight flits = 36784 (36784 measured)
latency change    = 0.00189128
throughput change = 0.000757302
1
Class 0:
Minimum packet latency = 5
Average packet latency = 15.0177
Maximum packet latency = 35
Minimum network latency = 5
Average network latency = 15.0177
Maximum network latency = 35
Slowest packet = 4531812
Minimum flit latency = 5
Average flit latency = 15.0286
Maximum flit latency = 35
Slowest flit = 4531812
Minimum fragmentation = 0
Average fragmentation = 0
Maximum fragmentation = 0
Minimum injected packet rate = 0.25 (at node 3096)
Average injected packet rate = 0.299984
Maximum injected packet rate = 0.356 (at node 2470)
Minimum accepted packet rate = 0.25 (at node 774)
Average accepted packet rate = 0.29999
Maximum accepted packet rate = 0.355 (at node 3250)
Minimum injected flit rate = 0.25 (at node 3096)
Average injected flit rate = 0.299984
Maximum injected flit rate = 0.356 (at node 2470)
Minimum accepted flit rate = 0.25 (at node 774)
Average accepted flit rate = 0.29999
Maximum accepted flit rate = 0.355 (at node 3250)
Average injected packet length = 1
Average accepted packet length = 1
Total in-flight flits = 36802 (36802 measured)
latency change    = 0.00128656
throughput change = 0.000583108
1
Class 0:
Minimum packet latency = 5
Average packet latency = 15.0217
Maximum packet latency = 36
Minimum network latency = 5
Average network latency = 15.0217
Maximum network latency = 36
Slowest packet = 6302337
Minimum flit latency = 5
Average flit latency = 15.0289
Maximum flit latency = 36
Slowest flit = 6302337
Minimum fragmentation = 0
Average fragmentation = 0
Maximum fragmentation = 0
Minimum injected packet rate = 0.255333 (at node 3096)
Average injected packet rate = 0.300054
Maximum injected packet rate = 0.342667 (at node 5611)
Minimum accepted packet rate = 0.256 (at node 774)
Average accepted packet rate = 0.300043
Maximum accepted packet rate = 0.344667 (at node 6901)
Minimum injected flit rate = 0.255333 (at node 3096)
Average injected flit rate = 0.300054
Maximum injected flit rate = 0.342667 (at node 5611)
Minimum accepted flit rate = 0.256 (at node 774)
Average accepted flit rate = 0.300043
Maximum accepted flit rate = 0.344667 (at node 6901)
Average injected packet length = 1
Average accepted packet length = 1
Total in-flight flits = 36988 (36988 measured)
latency change    = 0.000266411
throughput change = 0.000174807
Draining all recorded packets ...
Draining remaining packets ...
Time taken is 3057 cycles
====== Traffic class 0 ======
Overall minimum packet latency = 5 (1 samples)
Overall average packet latency = 15.029 (1 samples)
Overall maximum packet latency = 36 (1 samples)
Overall minimum network latency = 5 (1 samples)
Overall average network latency = 15.029 (1 samples)
Overall maximum network latency = 36 (1 samples)
Overall minimum flit latency = 5 (1 samples)
Overall average flit latency = 15.0349 (1 samples)
Overall maximum flit latency = 36 (1 samples)
Overall minimum fragmentation = 0 (1 samples)
Overall average fragmentation = 0 (1 samples)
Overall maximum fragmentation = 0 (1 samples)
Overall minimum injected packet rate = 0.255333 (1 samples)
Overall average injected packet rate = 0.300054 (1 samples)
Overall maximum injected packet rate = 0.342667 (1 samples)
Overall minimum accepted packet rate = 0.256 (1 samples)
Overall average accepted packet rate = 0.300043 (1 samples)
Overall maximum accepted packet rate = 0.344667 (1 samples)
Overall minimum injected flit rate = 0.255333 (1 samples)
Overall average injected flit rate = 0.300054 (1 samples)
Overall maximum injected flit rate = 0.342667 (1 samples)
Overall minimum accepted flit rate = 0.256 (1 samples)
Overall average accepted flit rate = 0.300043 (1 samples)
Overall maximum accepted flit rate = 0.344667 (1 samples)
Overall average injected packet size = 1 (1 samples)
Overall average accepted packet size = 1 (1 samples)
Overall average hops = 4.10398 (1 samples)
Total run time 553.337
