BEGIN Configuration File: ./DF.conf
injection_rate = 0.01;
traffic = bitrev;
use_size_power_of_two = yes;
routing_function = ugal;
vc_buf_size = 16;
topology = dragonflynew;
use_noc_latency = 0;
hold_switch_for_packet=0;

k = 7;
n = 1;

packet_size  = 1;
num_vcs      = 3;
vc_allocator = separable_input_first; 
sw_allocator = separable_input_first;

alloc_iters   = 1;
sample_period = 500;

wait_for_tail_credit = 0;
use_read_write       = 0;

credit_delay   = 2;
routing_delay  = 0;
vc_alloc_delay = 1;
sw_alloc_delay = 1;
st_final_delay = 1;

input_speedup     = 1;
output_speedup    = 1;
internal_speedup  = 2.0;

warmup_periods = 3;
sim_count      = 1;

priority = none;
injection_rate_uses_flits=1;

END Configuration File: ./DF.conf
Number of nodes: 9702
Number of routers: 1386
 Dragonfly 
 p = 7 n = 1
 each switch - total radix =  27
 # of switches = 1386
 # of channels = 27720
 # of nodes ( size of network ) = 9702
 # of groups (_g) = 99
 # of routers per group (_a) = 14
Done links


#################################################################################
0
Class 0:
Minimum packet latency = 5
Average packet latency = 13.4334
Maximum packet latency = 16
Minimum network latency = 5
Average network latency = 13.4334
Maximum network latency = 16
Slowest packet = 19703
Minimum flit latency = 5
Average flit latency = 13.4334
Maximum flit latency = 16
Slowest flit = 19703
Minimum fragmentation = 0
Average fragmentation = 0
Maximum fragmentation = 0
Minimum injected packet rate = 0 (at node 101)
Average injected packet rate = 0.0100149
Maximum injected packet rate = 0.03 (at node 2725)
Minimum accepted packet rate = 0 (at node 66)
Average accepted packet rate = 0.00973828
Maximum accepted packet rate = 0.03 (at node 5290)
Minimum injected flit rate = 0 (at node 101)
Average injected flit rate = 0.0100149
Maximum injected flit rate = 0.03 (at node 2725)
Minimum accepted flit rate = 0 (at node 66)
Average accepted flit rate = 0.00973828
Maximum accepted flit rate = 0.03 (at node 5290)
Average injected packet length = 1
Average accepted packet length = 1
Total in-flight flits = 1133 (0 measured)
latency change    = 1
throughput change = 1
0
Class 0:
Minimum packet latency = 5
Average packet latency = 13.4366
Maximum packet latency = 16
Minimum network latency = 5
Average network latency = 13.4366
Maximum network latency = 16
Slowest packet = 19703
Minimum flit latency = 5
Average flit latency = 13.4366
Maximum flit latency = 16
Slowest flit = 19703
Minimum fragmentation = 0
Average fragmentation = 0
Maximum fragmentation = 0
Minimum injected packet rate = 0.001 (at node 1916)
Average injected packet rate = 0.0100062
Maximum injected packet rate = 0.024 (at node 3728)
Minimum accepted packet rate = 0.001 (at node 2012)
Average accepted packet rate = 0.00987549
Maximum accepted packet rate = 0.024 (at node 302)
Minimum injected flit rate = 0.001 (at node 1916)
Average injected flit rate = 0.0100062
Maximum injected flit rate = 0.024 (at node 3728)
Minimum accepted flit rate = 0.001 (at node 2012)
Average accepted flit rate = 0.00987549
Maximum accepted flit rate = 0.024 (at node 302)
Average injected packet length = 1
Average accepted packet length = 1
Total in-flight flits = 1071 (0 measured)
latency change    = 0.000239067
throughput change = 0.0138937
0
Class 0:
Minimum packet latency = 5
Average packet latency = 13.4432
Maximum packet latency = 23
Minimum network latency = 5
Average network latency = 13.4432
Maximum network latency = 23
Slowest packet = 111220
Minimum flit latency = 5
Average flit latency = 13.4432
Maximum flit latency = 23
Slowest flit = 111220
Minimum fragmentation = 0
Average fragmentation = 0
Maximum fragmentation = 0
Minimum injected packet rate = 0 (at node 60)
Average injected packet rate = 0.0099707
Maximum injected packet rate = 0.03 (at node 5034)
Minimum accepted packet rate = 0 (at node 60)
Average accepted packet rate = 0.00997266
Maximum accepted packet rate = 0.03 (at node 6373)
Minimum injected flit rate = 0 (at node 60)
Average injected flit rate = 0.0099707
Maximum injected flit rate = 0.03 (at node 5034)
Minimum accepted flit rate = 0 (at node 60)
Average accepted flit rate = 0.00997266
Maximum accepted flit rate = 0.03 (at node 6373)
Average injected packet length = 1
Average accepted packet length = 1
Total in-flight flits = 1063 (0 measured)
latency change    = 0.000491202
throughput change = 0.00974344
Warmed up ...Time used is 1500 cycles
1
Class 0:
Minimum packet latency = 5
Average packet latency = 13.4499
Maximum packet latency = 16
Minimum network latency = 5
Average network latency = 13.4499
Maximum network latency = 16
Slowest packet = 148151
Minimum flit latency = 5
Average flit latency = 13.4553
Maximum flit latency = 16
Slowest flit = 148151
Minimum fragmentation = 0
Average fragmentation = 0
Maximum fragmentation = 0
Minimum injected packet rate = 0 (at node 413)
Average injected packet rate = 0.00998193
Maximum injected packet rate = 0.03 (at node 3623)
Minimum accepted packet rate = 0 (at node 84)
Average accepted packet rate = 0.00997803
Maximum accepted packet rate = 0.03 (at node 7310)
Minimum injected flit rate = 0 (at node 413)
Average injected flit rate = 0.00998193
Maximum injected flit rate = 0.03 (at node 3623)
Minimum accepted flit rate = 0 (at node 84)
Average accepted flit rate = 0.00997803
Maximum accepted flit rate = 0.03 (at node 7310)
Average injected packet length = 1
Average accepted packet length = 1
Total in-flight flits = 1079 (1079 measured)
latency change    = 0.000495659
throughput change = 0.000538292
1
Class 0:
Minimum packet latency = 5
Average packet latency = 13.4512
Maximum packet latency = 16
Minimum network latency = 5
Average network latency = 13.4512
Maximum network latency = 16
Slowest packet = 148151
Minimum flit latency = 5
Average flit latency = 13.4539
Maximum flit latency = 16
Slowest flit = 148151
Minimum fragmentation = 0
Average fragmentation = 0
Maximum fragmentation = 0
Minimum injected packet rate = 0.001 (at node 2560)
Average injected packet rate = 0.0100521
Maximum injected packet rate = 0.023 (at node 1108)
Minimum accepted packet rate = 0.001 (at node 10)
Average accepted packet rate = 0.0100416
Maximum accepted packet rate = 0.023 (at node 732)
Minimum injected flit rate = 0.001 (at node 2560)
Average injected flit rate = 0.0100521
Maximum injected flit rate = 0.023 (at node 1108)
Minimum accepted flit rate = 0.001 (at node 10)
Average accepted flit rate = 0.0100416
Maximum accepted flit rate = 0.023 (at node 732)
Average injected packet length = 1
Average accepted packet length = 1
Total in-flight flits = 1149 (1149 measured)
latency change    = 9.92527e-05
throughput change = 0.0063335
1
Class 0:
Minimum packet latency = 5
Average packet latency = 13.4501
Maximum packet latency = 16
Minimum network latency = 5
Average network latency = 13.4501
Maximum network latency = 16
Slowest packet = 148151
Minimum flit latency = 5
Average flit latency = 13.4519
Maximum flit latency = 16
Slowest flit = 148151
Minimum fragmentation = 0
Average fragmentation = 0
Maximum fragmentation = 0
Minimum injected packet rate = 0.002 (at node 3072)
Average injected packet rate = 0.0100244
Maximum injected packet rate = 0.0213333 (at node 3939)
Minimum accepted packet rate = 0.002 (at node 6)
Average accepted packet rate = 0.0100181
Maximum accepted packet rate = 0.0213333 (at node 6366)
Minimum injected flit rate = 0.002 (at node 3072)
Average injected flit rate = 0.0100244
Maximum injected flit rate = 0.0213333 (at node 3939)
Minimum accepted flit rate = 0.002 (at node 6)
Average accepted flit rate = 0.0100181
Maximum accepted flit rate = 0.0213333 (at node 6366)
Average injected packet length = 1
Average accepted packet length = 1
Total in-flight flits = 1140 (1140 measured)
latency change    = 8.23315e-05
throughput change = 0.00234357
Draining all recorded packets ...
Draining remaining packets ...
Time taken is 3033 cycles
====== Traffic class 0 ======
Overall minimum packet latency = 5 (1 samples)
Overall average packet latency = 13.4518 (1 samples)
Overall maximum packet latency = 16 (1 samples)
Overall minimum network latency = 5 (1 samples)
Overall average network latency = 13.4518 (1 samples)
Overall maximum network latency = 16 (1 samples)
Overall minimum flit latency = 5 (1 samples)
Overall average flit latency = 13.4541 (1 samples)
Overall maximum flit latency = 16 (1 samples)
Overall minimum fragmentation = 0 (1 samples)
Overall average fragmentation = 0 (1 samples)
Overall maximum fragmentation = 0 (1 samples)
Overall minimum injected packet rate = 0.002 (1 samples)
Overall average injected packet rate = 0.0100244 (1 samples)
Overall maximum injected packet rate = 0.0213333 (1 samples)
Overall minimum accepted packet rate = 0.002 (1 samples)
Overall average accepted packet rate = 0.0100181 (1 samples)
Overall maximum accepted packet rate = 0.0213333 (1 samples)
Overall minimum injected flit rate = 0.002 (1 samples)
Overall average injected flit rate = 0.0100244 (1 samples)
Overall maximum injected flit rate = 0.0213333 (1 samples)
Overall minimum accepted flit rate = 0.002 (1 samples)
Overall average accepted flit rate = 0.0100181 (1 samples)
Overall maximum accepted flit rate = 0.0213333 (1 samples)
Overall average injected packet size = 1 (1 samples)
Overall average accepted packet size = 1 (1 samples)
Overall average hops = 3.8147 (1 samples)
Total run time 126.416
