BEGIN Configuration File: ./DF.conf
injection_rate = 0.4;
traffic = bitrev;
use_size_power_of_two = yes;
routing_function = ugal;
vc_buf_size = 16;
topology = dragonflynew;
use_noc_latency = 0;
hold_switch_for_packet=0;

k = 7;
n = 1;

packet_size  = 1;
num_vcs      = 3;
vc_allocator = separable_input_first; 
sw_allocator = separable_input_first;

alloc_iters   = 1;
sample_period = 500;

wait_for_tail_credit = 0;
use_read_write       = 0;

credit_delay   = 2;
routing_delay  = 0;
vc_alloc_delay = 1;
sw_alloc_delay = 1;
st_final_delay = 1;

input_speedup     = 1;
output_speedup    = 1;
internal_speedup  = 2.0;

warmup_periods = 3;
sim_count      = 1;

priority = none;
injection_rate_uses_flits=1;

END Configuration File: ./DF.conf
Number of nodes: 9702
Number of routers: 1386
 Dragonfly 
 p = 7 n = 1
 each switch - total radix =  27
 # of switches = 1386
 # of channels = 27720
 # of nodes ( size of network ) = 9702
 # of groups (_g) = 99
 # of routers per group (_a) = 14
Done links


#################################################################################
0
Class 0:
Minimum packet latency = 5
Average packet latency = 16.2699
Maximum packet latency = 62
Minimum network latency = 5
Average network latency = 16.2699
Maximum network latency = 62
Slowest packet = 1147132
Minimum flit latency = 5
Average flit latency = 16.2699
Maximum flit latency = 62
Slowest flit = 1147132
Minimum fragmentation = 0
Average fragmentation = 0
Maximum fragmentation = 0
Minimum injected packet rate = 0.318 (at node 3086)
Average injected packet rate = 0.39965
Maximum injected packet rate = 0.484 (at node 3798)
Minimum accepted packet rate = 0.304 (at node 3590)
Average accepted packet rate = 0.386502
Maximum accepted packet rate = 0.468 (at node 7919)
Minimum injected flit rate = 0.318 (at node 3086)
Average injected flit rate = 0.39965
Maximum injected flit rate = 0.484 (at node 3798)
Minimum accepted flit rate = 0.304 (at node 3590)
Average accepted flit rate = 0.386502
Maximum accepted flit rate = 0.468 (at node 7919)
Average injected packet length = 1
Average accepted packet length = 1
Total in-flight flits = 53855 (0 measured)
latency change    = 1
throughput change = 1
0
Class 0:
Minimum packet latency = 5
Average packet latency = 16.3422
Maximum packet latency = 62
Minimum network latency = 5
Average network latency = 16.3422
Maximum network latency = 62
Slowest packet = 1147132
Minimum flit latency = 5
Average flit latency = 16.3422
Maximum flit latency = 62
Slowest flit = 1147132
Minimum fragmentation = 0
Average fragmentation = 0
Maximum fragmentation = 0
Minimum injected packet rate = 0.344 (at node 4658)
Average injected packet rate = 0.399758
Maximum injected packet rate = 0.461 (at node 6617)
Minimum accepted packet rate = 0.339 (at node 2510)
Average accepted packet rate = 0.393261
Maximum accepted packet rate = 0.455 (at node 4979)
Minimum injected flit rate = 0.344 (at node 4658)
Average injected flit rate = 0.399758
Maximum injected flit rate = 0.461 (at node 6617)
Minimum accepted flit rate = 0.339 (at node 2510)
Average accepted flit rate = 0.393261
Maximum accepted flit rate = 0.455 (at node 4979)
Average injected packet length = 1
Average accepted packet length = 1
Total in-flight flits = 53218 (0 measured)
latency change    = 0.00442433
throughput change = 0.0171878
0
Class 0:
Minimum packet latency = 5
Average packet latency = 16.4035
Maximum packet latency = 60
Minimum network latency = 5
Average network latency = 16.4035
Maximum network latency = 60
Slowest packet = 4436050
Minimum flit latency = 5
Average flit latency = 16.4035
Maximum flit latency = 60
Slowest flit = 4436050
Minimum fragmentation = 0
Average fragmentation = 0
Maximum fragmentation = 0
Minimum injected packet rate = 0.31 (at node 7949)
Average injected packet rate = 0.399958
Maximum injected packet rate = 0.484 (at node 2471)
Minimum accepted packet rate = 0.314 (at node 5663)
Average accepted packet rate = 0.399838
Maximum accepted packet rate = 0.478 (at node 7346)
Minimum injected flit rate = 0.31 (at node 7949)
Average injected flit rate = 0.399958
Maximum injected flit rate = 0.484 (at node 2471)
Minimum accepted flit rate = 0.314 (at node 5663)
Average accepted flit rate = 0.399838
Maximum accepted flit rate = 0.478 (at node 7346)
Average injected packet length = 1
Average accepted packet length = 1
Total in-flight flits = 53710 (0 measured)
latency change    = 0.00373866
throughput change = 0.0164489
Warmed up ...Time used is 1500 cycles
1
Class 0:
Minimum packet latency = 5
Average packet latency = 16.3479
Maximum packet latency = 61
Minimum network latency = 5
Average network latency = 16.3479
Maximum network latency = 61
Slowest packet = 6164830
Minimum flit latency = 5
Average flit latency = 16.3843
Maximum flit latency = 61
Slowest flit = 6164830
Minimum fragmentation = 0
Average fragmentation = 0
Maximum fragmentation = 0
Minimum injected packet rate = 0.318 (at node 119)
Average injected packet rate = 0.399553
Maximum injected packet rate = 0.48 (at node 2650)
Minimum accepted packet rate = 0.318 (at node 1872)
Average accepted packet rate = 0.399572
Maximum accepted packet rate = 0.48 (at node 2890)
Minimum injected flit rate = 0.318 (at node 119)
Average injected flit rate = 0.399553
Maximum injected flit rate = 0.48 (at node 2650)
Minimum accepted flit rate = 0.318 (at node 1872)
Average accepted flit rate = 0.399572
Maximum accepted flit rate = 0.48 (at node 2890)
Average injected packet length = 1
Average accepted packet length = 1
Total in-flight flits = 53635 (53635 measured)
latency change    = 0.00340235
throughput change = 0.000666607
1
Class 0:
Minimum packet latency = 5
Average packet latency = 16.3825
Maximum packet latency = 61
Minimum network latency = 5
Average network latency = 16.3825
Maximum network latency = 61
Slowest packet = 6164830
Minimum flit latency = 5
Average flit latency = 16.4002
Maximum flit latency = 61
Slowest flit = 6164830
Minimum fragmentation = 0
Average fragmentation = 0
Maximum fragmentation = 0
Minimum injected packet rate = 0.347 (at node 770)
Average injected packet rate = 0.399897
Maximum injected packet rate = 0.459 (at node 2470)
Minimum accepted packet rate = 0.347 (at node 7238)
Average accepted packet rate = 0.399923
Maximum accepted packet rate = 0.456 (at node 3250)
Minimum injected flit rate = 0.347 (at node 770)
Average injected flit rate = 0.399897
Maximum injected flit rate = 0.459 (at node 2470)
Minimum accepted flit rate = 0.347 (at node 7238)
Average accepted flit rate = 0.399923
Maximum accepted flit rate = 0.456 (at node 3250)
Average injected packet length = 1
Average accepted packet length = 1
Total in-flight flits = 53494 (53494 measured)
latency change    = 0.00211525
throughput change = 0.00087816
1
Class 0:
Minimum packet latency = 5
Average packet latency = 16.3906
Maximum packet latency = 64
Minimum network latency = 5
Average network latency = 16.3906
Maximum network latency = 64
Slowest packet = 9475208
Minimum flit latency = 5
Average flit latency = 16.4022
Maximum flit latency = 64
Slowest flit = 9475208
Minimum fragmentation = 0
Average fragmentation = 0
Maximum fragmentation = 0
Minimum injected packet rate = 0.352 (at node 204)
Average injected packet rate = 0.399993
Maximum injected packet rate = 0.445333 (at node 1383)
Minimum accepted packet rate = 0.351333 (at node 862)
Average accepted packet rate = 0.399974
Maximum accepted packet rate = 0.445333 (at node 7380)
Minimum injected flit rate = 0.352 (at node 204)
Average injected flit rate = 0.399993
Maximum injected flit rate = 0.445333 (at node 1383)
Minimum accepted flit rate = 0.351333 (at node 862)
Average accepted flit rate = 0.399974
Maximum accepted flit rate = 0.445333 (at node 7380)
Average injected packet length = 1
Average accepted packet length = 1
Total in-flight flits = 53941 (53941 measured)
latency change    = 0.000490439
throughput change = 0.000128284
Draining all recorded packets ...
Draining remaining packets ...
Time taken is 3090 cycles
====== Traffic class 0 ======
Overall minimum packet latency = 5 (1 samples)
Overall average packet latency = 16.4034 (1 samples)
Overall maximum packet latency = 66 (1 samples)
Overall minimum network latency = 5 (1 samples)
Overall average network latency = 16.4034 (1 samples)
Overall maximum network latency = 66 (1 samples)
Overall minimum flit latency = 5 (1 samples)
Overall average flit latency = 16.4131 (1 samples)
Overall maximum flit latency = 66 (1 samples)
Overall minimum fragmentation = 0 (1 samples)
Overall average fragmentation = 0 (1 samples)
Overall maximum fragmentation = 0 (1 samples)
Overall minimum injected packet rate = 0.352 (1 samples)
Overall average injected packet rate = 0.399993 (1 samples)
Overall maximum injected packet rate = 0.445333 (1 samples)
Overall minimum accepted packet rate = 0.351333 (1 samples)
Overall average accepted packet rate = 0.399974 (1 samples)
Overall maximum accepted packet rate = 0.445333 (1 samples)
Overall minimum injected flit rate = 0.352 (1 samples)
Overall average injected flit rate = 0.399993 (1 samples)
Overall maximum injected flit rate = 0.445333 (1 samples)
Overall minimum accepted flit rate = 0.351333 (1 samples)
Overall average accepted flit rate = 0.399974 (1 samples)
Overall maximum accepted flit rate = 0.445333 (1 samples)
Overall average injected packet size = 1 (1 samples)
Overall average accepted packet size = 1 (1 samples)
Overall average hops = 4.21386 (1 samples)
Total run time 710.032
