BEGIN Configuration File: ./DF.conf
injection_rate = 0.5;
traffic = bitrev;
use_size_power_of_two = yes;
routing_function = ugal;
vc_buf_size = 16;
topology = dragonflynew;
use_noc_latency = 0;
hold_switch_for_packet=0;

k = 7;
n = 1;

packet_size  = 1;
num_vcs      = 3;
vc_allocator = separable_input_first; 
sw_allocator = separable_input_first;

alloc_iters   = 1;
sample_period = 500;

wait_for_tail_credit = 0;
use_read_write       = 0;

credit_delay   = 2;
routing_delay  = 0;
vc_alloc_delay = 1;
sw_alloc_delay = 1;
st_final_delay = 1;

input_speedup     = 1;
output_speedup    = 1;
internal_speedup  = 2.0;

warmup_periods = 3;
sim_count      = 1;

priority = none;
injection_rate_uses_flits=1;

END Configuration File: ./DF.conf
Number of nodes: 9702
Number of routers: 1386
 Dragonfly 
 p = 7 n = 1
 each switch - total radix =  27
 # of switches = 1386
 # of channels = 27720
 # of nodes ( size of network ) = 9702
 # of groups (_g) = 99
 # of routers per group (_a) = 14
Done links


#################################################################################
0
Class 0:
Minimum packet latency = 5
Average packet latency = 20.9585
Maximum packet latency = 121
Minimum network latency = 5
Average network latency = 20.9585
Maximum network latency = 121
Slowest packet = 1299930
Minimum flit latency = 5
Average flit latency = 20.9585
Maximum flit latency = 121
Slowest flit = 1299930
Minimum fragmentation = 0
Average fragmentation = 0
Maximum fragmentation = 0
Minimum injected packet rate = 0.416 (at node 124)
Average injected packet rate = 0.499673
Maximum injected packet rate = 0.582 (at node 7316)
Minimum accepted packet rate = 0.386 (at node 5241)
Average accepted packet rate = 0.477142
Maximum accepted packet rate = 0.558 (at node 1933)
Minimum injected flit rate = 0.416 (at node 124)
Average injected flit rate = 0.499673
Maximum injected flit rate = 0.582 (at node 7316)
Minimum accepted flit rate = 0.386 (at node 5241)
Average accepted flit rate = 0.477142
Maximum accepted flit rate = 0.558 (at node 1933)
Average injected packet length = 1
Average accepted packet length = 1
Total in-flight flits = 92286 (0 measured)
latency change    = 1
throughput change = 1
0
Class 0:
Minimum packet latency = 5
Average packet latency = 21.7281
Maximum packet latency = 121
Minimum network latency = 5
Average network latency = 21.7281
Maximum network latency = 121
Slowest packet = 1299930
Minimum flit latency = 5
Average flit latency = 21.7281
Maximum flit latency = 121
Slowest flit = 1299930
Minimum fragmentation = 0
Average fragmentation = 0
Maximum fragmentation = 0
Minimum injected packet rate = 0.441 (at node 4299)
Average injected packet rate = 0.49985
Maximum injected packet rate = 0.558 (at node 5971)
Minimum accepted packet rate = 0.427 (at node 6753)
Average accepted packet rate = 0.488666
Maximum accepted packet rate = 0.541 (at node 1319)
Minimum injected flit rate = 0.441 (at node 4299)
Average injected flit rate = 0.49985
Maximum injected flit rate = 0.558 (at node 5971)
Minimum accepted flit rate = 0.427 (at node 6753)
Average accepted flit rate = 0.488666
Maximum accepted flit rate = 0.541 (at node 1319)
Average injected packet length = 1
Average accepted packet length = 1
Total in-flight flits = 91621 (0 measured)
latency change    = 0.0354193
throughput change = 0.0235824
0
Class 0:
Minimum packet latency = 5
Average packet latency = 22.3761
Maximum packet latency = 142
Minimum network latency = 5
Average network latency = 22.3761
Maximum network latency = 142
Slowest packet = 3911793
Minimum flit latency = 5
Average flit latency = 22.3761
Maximum flit latency = 142
Slowest flit = 3911793
Minimum fragmentation = 0
Average fragmentation = 0
Maximum fragmentation = 0
Minimum injected packet rate = 0.406 (at node 3237)
Average injected packet rate = 0.499993
Maximum injected packet rate = 0.576 (at node 5070)
Minimum accepted packet rate = 0.408 (at node 4526)
Average accepted packet rate = 0.499904
Maximum accepted packet rate = 0.572 (at node 1888)
Minimum injected flit rate = 0.406 (at node 3237)
Average injected flit rate = 0.499993
Maximum injected flit rate = 0.576 (at node 5070)
Minimum accepted flit rate = 0.408 (at node 4526)
Average accepted flit rate = 0.499904
Maximum accepted flit rate = 0.572 (at node 1888)
Average injected packet length = 1
Average accepted packet length = 1
Total in-flight flits = 91984 (0 measured)
latency change    = 0.0289613
throughput change = 0.0224799
Warmed up ...Time used is 1500 cycles
1
Class 0:
Minimum packet latency = 5
Average packet latency = 22.1434
Maximum packet latency = 166
Minimum network latency = 5
Average network latency = 22.1434
Maximum network latency = 166
Slowest packet = 6405259
Minimum flit latency = 5
Average flit latency = 22.3374
Maximum flit latency = 166
Slowest flit = 6405259
Minimum fragmentation = 0
Average fragmentation = 0
Maximum fragmentation = 0
Minimum injected packet rate = 0.418 (at node 119)
Average injected packet rate = 0.499688
Maximum injected packet rate = 0.582 (at node 3845)
Minimum accepted packet rate = 0.416 (at node 1119)
Average accepted packet rate = 0.499891
Maximum accepted packet rate = 0.578 (at node 3069)
Minimum injected flit rate = 0.418 (at node 119)
Average injected flit rate = 0.499688
Maximum injected flit rate = 0.582 (at node 3845)
Minimum accepted flit rate = 0.416 (at node 1119)
Average accepted flit rate = 0.499891
Maximum accepted flit rate = 0.578 (at node 3069)
Average injected packet length = 1
Average accepted packet length = 1
Total in-flight flits = 91154 (91154 measured)
latency change    = 0.0105105
throughput change = 2.63729e-05
1
Class 0:
Minimum packet latency = 5
Average packet latency = 22.296
Maximum packet latency = 166
Minimum network latency = 5
Average network latency = 22.296
Maximum network latency = 166
Slowest packet = 6405259
Minimum flit latency = 5
Average flit latency = 22.3896
Maximum flit latency = 166
Slowest flit = 6405259
Minimum fragmentation = 0
Average fragmentation = 0
Maximum fragmentation = 0
Minimum injected packet rate = 0.436 (at node 4383)
Average injected packet rate = 0.499945
Maximum injected packet rate = 0.562 (at node 2470)
Minimum accepted packet rate = 0.435 (at node 7953)
Average accepted packet rate = 0.49997
Maximum accepted packet rate = 0.559 (at node 6033)
Minimum injected flit rate = 0.436 (at node 4383)
Average injected flit rate = 0.499945
Maximum injected flit rate = 0.562 (at node 2470)
Minimum accepted flit rate = 0.435 (at node 7953)
Average accepted flit rate = 0.49997
Maximum accepted flit rate = 0.559 (at node 6033)
Average injected packet length = 1
Average accepted packet length = 1
Total in-flight flits = 91785 (91785 measured)
latency change    = 0.00684475
throughput change = 0.000157724
1
Class 0:
Minimum packet latency = 5
Average packet latency = 22.3488
Maximum packet latency = 166
Minimum network latency = 5
Average network latency = 22.3487
Maximum network latency = 166
Slowest packet = 6405259
Minimum flit latency = 5
Average flit latency = 22.4103
Maximum flit latency = 166
Slowest flit = 6405259
Minimum fragmentation = 0
Average fragmentation = 0
Maximum fragmentation = 0
Minimum injected packet rate = 0.444 (at node 4355)
Average injected packet rate = 0.500058
Maximum injected packet rate = 0.548667 (at node 5611)
Minimum accepted packet rate = 0.439333 (at node 6161)
Average accepted packet rate = 0.500065
Maximum accepted packet rate = 0.550667 (at node 6901)
Minimum injected flit rate = 0.444 (at node 4355)
Average injected flit rate = 0.500058
Maximum injected flit rate = 0.548667 (at node 5611)
Minimum accepted flit rate = 0.439333 (at node 6161)
Average accepted flit rate = 0.500065
Maximum accepted flit rate = 0.550667 (at node 6901)
Average injected packet length = 1
Average accepted packet length = 1
Total in-flight flits = 91904 (91904 measured)
latency change    = 0.0023617
throughput change = 0.000189754
Draining all recorded packets ...
Draining remaining packets ...
Time taken is 3190 cycles
====== Traffic class 0 ======
Overall minimum packet latency = 5 (1 samples)
Overall average packet latency = 22.4128 (1 samples)
Overall maximum packet latency = 166 (1 samples)
Overall minimum network latency = 5 (1 samples)
Overall average network latency = 22.4128 (1 samples)
Overall maximum network latency = 166 (1 samples)
Overall minimum flit latency = 5 (1 samples)
Overall average flit latency = 22.4577 (1 samples)
Overall maximum flit latency = 166 (1 samples)
Overall minimum fragmentation = 0 (1 samples)
Overall average fragmentation = 0 (1 samples)
Overall maximum fragmentation = 0 (1 samples)
Overall minimum injected packet rate = 0.444 (1 samples)
Overall average injected packet rate = 0.500058 (1 samples)
Overall maximum injected packet rate = 0.548667 (1 samples)
Overall minimum accepted packet rate = 0.439333 (1 samples)
Overall average accepted packet rate = 0.500065 (1 samples)
Overall maximum accepted packet rate = 0.550667 (1 samples)
Overall minimum injected flit rate = 0.444 (1 samples)
Overall average injected flit rate = 0.500058 (1 samples)
Overall maximum injected flit rate = 0.548667 (1 samples)
Overall minimum accepted flit rate = 0.439333 (1 samples)
Overall average accepted flit rate = 0.500065 (1 samples)
Overall maximum accepted flit rate = 0.550667 (1 samples)
Overall average injected packet size = 1 (1 samples)
Overall average accepted packet size = 1 (1 samples)
Overall average hops = 4.42134 (1 samples)
Total run time 918.959
