BEGIN Configuration File: ./DF.conf
injection_rate = 0.45;
traffic = bitrev;
use_size_power_of_two = yes;
routing_function = ugal;
vc_buf_size = 16;
topology = dragonflynew;
use_noc_latency = 0;
hold_switch_for_packet=0;

k = 7;
n = 1;

packet_size  = 1;
num_vcs      = 3;
vc_allocator = separable_input_first; 
sw_allocator = separable_input_first;

alloc_iters   = 1;
sample_period = 500;

wait_for_tail_credit = 0;
use_read_write       = 0;

credit_delay   = 2;
routing_delay  = 0;
vc_alloc_delay = 1;
sw_alloc_delay = 1;
st_final_delay = 1;

input_speedup     = 1;
output_speedup    = 1;
internal_speedup  = 2.0;

warmup_periods = 3;
sim_count      = 1;

priority = none;
injection_rate_uses_flits=1;

END Configuration File: ./DF.conf
Number of nodes: 9702
Number of routers: 1386
 Dragonfly 
 p = 7 n = 1
 each switch - total radix =  27
 # of switches = 1386
 # of channels = 27720
 # of nodes ( size of network ) = 9702
 # of groups (_g) = 99
 # of routers per group (_a) = 14
Done links


#################################################################################
0
Class 0:
Minimum packet latency = 5
Average packet latency = 17.794
Maximum packet latency = 76
Minimum network latency = 5
Average network latency = 17.794
Maximum network latency = 76
Slowest packet = 904496
Minimum flit latency = 5
Average flit latency = 17.794
Maximum flit latency = 76
Slowest flit = 904496
Minimum fragmentation = 0
Average fragmentation = 0
Maximum fragmentation = 0
Minimum injected packet rate = 0.374 (at node 3086)
Average injected packet rate = 0.449739
Maximum injected packet rate = 0.534 (at node 4197)
Minimum accepted packet rate = 0.356 (at node 1761)
Average accepted packet rate = 0.433343
Maximum accepted packet rate = 0.514 (at node 5313)
Minimum injected flit rate = 0.374 (at node 3086)
Average injected flit rate = 0.449739
Maximum injected flit rate = 0.534 (at node 4197)
Minimum accepted flit rate = 0.356 (at node 1761)
Average accepted flit rate = 0.433343
Maximum accepted flit rate = 0.514 (at node 5313)
Average injected packet length = 1
Average accepted packet length = 1
Total in-flight flits = 67158 (0 measured)
latency change    = 1
throughput change = 1
0
Class 0:
Minimum packet latency = 5
Average packet latency = 17.9588
Maximum packet latency = 77
Minimum network latency = 5
Average network latency = 17.9588
Maximum network latency = 77
Slowest packet = 1574096
Minimum flit latency = 5
Average flit latency = 17.9588
Maximum flit latency = 77
Slowest flit = 1574096
Minimum fragmentation = 0
Average fragmentation = 0
Maximum fragmentation = 0
Minimum injected packet rate = 0.394 (at node 4299)
Average injected packet rate = 0.449774
Maximum injected packet rate = 0.507 (at node 4639)
Minimum accepted packet rate = 0.389 (at node 2852)
Average accepted packet rate = 0.44168
Maximum accepted packet rate = 0.501 (at node 5819)
Minimum injected flit rate = 0.394 (at node 4299)
Average injected flit rate = 0.449774
Maximum injected flit rate = 0.507 (at node 4639)
Minimum accepted flit rate = 0.389 (at node 2852)
Average accepted flit rate = 0.44168
Maximum accepted flit rate = 0.501 (at node 5819)
Average injected packet length = 1
Average accepted packet length = 1
Total in-flight flits = 66308 (0 measured)
latency change    = 0.00917103
throughput change = 0.0188747
0
Class 0:
Minimum packet latency = 5
Average packet latency = 18.1581
Maximum packet latency = 84
Minimum network latency = 5
Average network latency = 18.1581
Maximum network latency = 84
Slowest packet = 3722652
Minimum flit latency = 5
Average flit latency = 18.1581
Maximum flit latency = 84
Slowest flit = 3722652
Minimum fragmentation = 0
Average fragmentation = 0
Maximum fragmentation = 0
Minimum injected packet rate = 0.364 (at node 3237)
Average injected packet rate = 0.45007
Maximum injected packet rate = 0.54 (at node 2471)
Minimum accepted packet rate = 0.372 (at node 5286)
Average accepted packet rate = 0.449913
Maximum accepted packet rate = 0.532 (at node 7346)
Minimum injected flit rate = 0.364 (at node 3237)
Average injected flit rate = 0.45007
Maximum injected flit rate = 0.54 (at node 2471)
Minimum accepted flit rate = 0.372 (at node 5286)
Average accepted flit rate = 0.449913
Maximum accepted flit rate = 0.532 (at node 7346)
Average injected packet length = 1
Average accepted packet length = 1
Total in-flight flits = 66954 (0 measured)
latency change    = 0.0109779
throughput change = 0.0182992
Warmed up ...Time used is 1500 cycles
1
Class 0:
Minimum packet latency = 5
Average packet latency = 18.0713
Maximum packet latency = 82
Minimum network latency = 5
Average network latency = 18.0713
Maximum network latency = 82
Slowest packet = 6122588
Minimum flit latency = 5
Average flit latency = 18.1407
Maximum flit latency = 82
Slowest flit = 6122588
Minimum fragmentation = 0
Average fragmentation = 0
Maximum fragmentation = 0
Minimum injected packet rate = 0.376 (at node 770)
Average injected packet rate = 0.44961
Maximum injected packet rate = 0.532 (at node 3845)
Minimum accepted packet rate = 0.372 (at node 1872)
Average accepted packet rate = 0.449687
Maximum accepted packet rate = 0.532 (at node 6793)
Minimum injected flit rate = 0.376 (at node 770)
Average injected flit rate = 0.44961
Maximum injected flit rate = 0.532 (at node 3845)
Minimum accepted flit rate = 0.372 (at node 1872)
Average accepted flit rate = 0.449687
Maximum accepted flit rate = 0.532 (at node 6793)
Average injected packet length = 1
Average accepted packet length = 1
Total in-flight flits = 66640 (66640 measured)
latency change    = 0.00479989
throughput change = 0.000502194
1
Class 0:
Minimum packet latency = 5
Average packet latency = 18.1245
Maximum packet latency = 82
Minimum network latency = 5
Average network latency = 18.1245
Maximum network latency = 82
Slowest packet = 6122588
Minimum flit latency = 5
Average flit latency = 18.1582
Maximum flit latency = 82
Slowest flit = 6122588
Minimum fragmentation = 0
Average fragmentation = 0
Maximum fragmentation = 0
Minimum injected packet rate = 0.388 (at node 4383)
Average injected packet rate = 0.449925
Maximum injected packet rate = 0.512 (at node 2470)
Minimum accepted packet rate = 0.393 (at node 7953)
Average accepted packet rate = 0.449961
Maximum accepted packet rate = 0.509 (at node 6854)
Minimum injected flit rate = 0.388 (at node 4383)
Average injected flit rate = 0.449925
Maximum injected flit rate = 0.512 (at node 2470)
Minimum accepted flit rate = 0.393 (at node 7953)
Average accepted flit rate = 0.449961
Maximum accepted flit rate = 0.509 (at node 6854)
Average injected packet length = 1
Average accepted packet length = 1
Total in-flight flits = 66658 (66658 measured)
latency change    = 0.00293316
throughput change = 0.000610404
1
Class 0:
Minimum packet latency = 5
Average packet latency = 18.1301
Maximum packet latency = 82
Minimum network latency = 5
Average network latency = 18.1301
Maximum network latency = 82
Slowest packet = 6122588
Minimum flit latency = 5
Average flit latency = 18.1525
Maximum flit latency = 82
Slowest flit = 6122588
Minimum fragmentation = 0
Average fragmentation = 0
Maximum fragmentation = 0
Minimum injected packet rate = 0.401333 (at node 4383)
Average injected packet rate = 0.450013
Maximum injected packet rate = 0.498667 (at node 4092)
Minimum accepted packet rate = 0.402667 (at node 862)
Average accepted packet rate = 0.450027
Maximum accepted packet rate = 0.5 (at node 6901)
Minimum injected flit rate = 0.401333 (at node 4383)
Average injected flit rate = 0.450013
Maximum injected flit rate = 0.498667 (at node 4092)
Minimum accepted flit rate = 0.402667 (at node 862)
Average accepted flit rate = 0.450027
Maximum accepted flit rate = 0.5 (at node 6901)
Average injected packet length = 1
Average accepted packet length = 1
Total in-flight flits = 66780 (66780 measured)
latency change    = 0.000305864
throughput change = 0.000146295
Draining all recorded packets ...
Draining remaining packets ...
Time taken is 3119 cycles
====== Traffic class 0 ======
Overall minimum packet latency = 5 (1 samples)
Overall average packet latency = 18.1523 (1 samples)
Overall maximum packet latency = 82 (1 samples)
Overall minimum network latency = 5 (1 samples)
Overall average network latency = 18.1523 (1 samples)
Overall maximum network latency = 82 (1 samples)
Overall minimum flit latency = 5 (1 samples)
Overall average flit latency = 18.1688 (1 samples)
Overall maximum flit latency = 82 (1 samples)
Overall minimum fragmentation = 0 (1 samples)
Overall average fragmentation = 0 (1 samples)
Overall maximum fragmentation = 0 (1 samples)
Overall minimum injected packet rate = 0.401333 (1 samples)
Overall average injected packet rate = 0.450013 (1 samples)
Overall maximum injected packet rate = 0.498667 (1 samples)
Overall minimum accepted packet rate = 0.402667 (1 samples)
Overall average accepted packet rate = 0.450027 (1 samples)
Overall maximum accepted packet rate = 0.5 (1 samples)
Overall minimum injected flit rate = 0.401333 (1 samples)
Overall average injected flit rate = 0.450013 (1 samples)
Overall maximum injected flit rate = 0.498667 (1 samples)
Overall minimum accepted flit rate = 0.402667 (1 samples)
Overall average accepted flit rate = 0.450027 (1 samples)
Overall maximum accepted flit rate = 0.5 (1 samples)
Overall average injected packet size = 1 (1 samples)
Overall average accepted packet size = 1 (1 samples)
Overall average hops = 4.28889 (1 samples)
Total run time 1117.27
