BEGIN Configuration File: ./DF.conf
injection_rate = 0.1;
traffic = bitrev;
use_size_power_of_two = yes;
routing_function = ugal;
vc_buf_size = 16;
topology = dragonflynew;
use_noc_latency = 0;
hold_switch_for_packet=0;

k = 7;
n = 1;

packet_size  = 1;
num_vcs      = 3;
vc_allocator = separable_input_first; 
sw_allocator = separable_input_first;

alloc_iters   = 1;
sample_period = 500;

wait_for_tail_credit = 0;
use_read_write       = 0;

credit_delay   = 2;
routing_delay  = 0;
vc_alloc_delay = 1;
sw_alloc_delay = 1;
st_final_delay = 1;

input_speedup     = 1;
output_speedup    = 1;
internal_speedup  = 2.0;

warmup_periods = 3;
sim_count      = 1;

priority = none;
injection_rate_uses_flits=1;

END Configuration File: ./DF.conf
Number of nodes: 9702
Number of routers: 1386
 Dragonfly 
 p = 7 n = 1
 each switch - total radix =  27
 # of switches = 1386
 # of channels = 27720
 # of nodes ( size of network ) = 9702
 # of groups (_g) = 99
 # of routers per group (_a) = 14
Done links


#################################################################################
0
Class 0:
Minimum packet latency = 5
Average packet latency = 13.6478
Maximum packet latency = 27
Minimum network latency = 5
Average network latency = 13.6478
Maximum network latency = 27
Slowest packet = 180517
Minimum flit latency = 5
Average flit latency = 13.6478
Maximum flit latency = 27
Slowest flit = 180517
Minimum fragmentation = 0
Average fragmentation = 0
Maximum fragmentation = 0
Minimum injected packet rate = 0.058 (at node 242)
Average injected packet rate = 0.0998809
Maximum injected packet rate = 0.158 (at node 5911)
Minimum accepted packet rate = 0.054 (at node 1005)
Average accepted packet rate = 0.0971477
Maximum accepted packet rate = 0.152 (at node 7453)
Minimum injected flit rate = 0.058 (at node 242)
Average injected flit rate = 0.0998809
Maximum injected flit rate = 0.158 (at node 5911)
Minimum accepted flit rate = 0.054 (at node 1005)
Average accepted flit rate = 0.0971477
Maximum accepted flit rate = 0.152 (at node 7453)
Average injected packet length = 1
Average accepted packet length = 1
Total in-flight flits = 11195 (0 measured)
latency change    = 1
throughput change = 1
0
Class 0:
Minimum packet latency = 5
Average packet latency = 13.6535
Maximum packet latency = 27
Minimum network latency = 5
Average network latency = 13.6535
Maximum network latency = 27
Slowest packet = 180517
Minimum flit latency = 5
Average flit latency = 13.6535
Maximum flit latency = 27
Slowest flit = 180517
Minimum fragmentation = 0
Average fragmentation = 0
Maximum fragmentation = 0
Minimum injected packet rate = 0.066 (at node 4326)
Average injected packet rate = 0.0999166
Maximum injected packet rate = 0.137 (at node 6882)
Minimum accepted packet rate = 0.065 (at node 3297)
Average accepted packet rate = 0.0985541
Maximum accepted packet rate = 0.137 (at node 2283)
Minimum injected flit rate = 0.066 (at node 4326)
Average injected flit rate = 0.0999166
Maximum injected flit rate = 0.137 (at node 6882)
Minimum accepted flit rate = 0.065 (at node 3297)
Average accepted flit rate = 0.0985541
Maximum accepted flit rate = 0.137 (at node 2283)
Average injected packet length = 1
Average accepted packet length = 1
Total in-flight flits = 11162 (0 measured)
latency change    = 0.00041867
throughput change = 0.0142701
0
Class 0:
Minimum packet latency = 5
Average packet latency = 13.6622
Maximum packet latency = 26
Minimum network latency = 5
Average network latency = 13.6622
Maximum network latency = 26
Slowest packet = 845260
Minimum flit latency = 5
Average flit latency = 13.6622
Maximum flit latency = 26
Slowest flit = 845260
Minimum fragmentation = 0
Average fragmentation = 0
Maximum fragmentation = 0
Minimum injected packet rate = 0.056 (at node 1989)
Average injected packet rate = 0.100041
Maximum injected packet rate = 0.158 (at node 6341)
Minimum accepted packet rate = 0.054 (at node 5244)
Average accepted packet rate = 0.100031
Maximum accepted packet rate = 0.162 (at node 5219)
Minimum injected flit rate = 0.056 (at node 1989)
Average injected flit rate = 0.100041
Maximum injected flit rate = 0.158 (at node 6341)
Minimum accepted flit rate = 0.054 (at node 5244)
Average accepted flit rate = 0.100031
Maximum accepted flit rate = 0.162 (at node 5219)
Average injected packet length = 1
Average accepted packet length = 1
Total in-flight flits = 11206 (0 measured)
latency change    = 0.000639554
throughput change = 0.0147599
Warmed up ...Time used is 1500 cycles
1
Class 0:
Minimum packet latency = 5
Average packet latency = 13.6523
Maximum packet latency = 26
Minimum network latency = 5
Average network latency = 13.6523
Maximum network latency = 26
Slowest packet = 1290510
Minimum flit latency = 5
Average flit latency = 13.6593
Maximum flit latency = 26
Slowest flit = 1290510
Minimum fragmentation = 0
Average fragmentation = 0
Maximum fragmentation = 0
Minimum injected packet rate = 0.058 (at node 2158)
Average injected packet rate = 0.0998091
Maximum injected packet rate = 0.156 (at node 6323)
Minimum accepted packet rate = 0.056 (at node 8175)
Average accepted packet rate = 0.0998127
Maximum accepted packet rate = 0.154 (at node 6563)
Minimum injected flit rate = 0.058 (at node 2158)
Average injected flit rate = 0.0998091
Maximum injected flit rate = 0.156 (at node 6323)
Minimum accepted flit rate = 0.056 (at node 8175)
Average accepted flit rate = 0.0998127
Maximum accepted flit rate = 0.154 (at node 6563)
Average injected packet length = 1
Average accepted packet length = 1
Total in-flight flits = 11191 (11191 measured)
latency change    = 0.000725881
throughput change = 0.00218182
1
Class 0:
Minimum packet latency = 5
Average packet latency = 13.6592
Maximum packet latency = 29
Minimum network latency = 5
Average network latency = 13.6592
Maximum network latency = 29
Slowest packet = 1900636
Minimum flit latency = 5
Average flit latency = 13.6626
Maximum flit latency = 29
Slowest flit = 1900636
Minimum fragmentation = 0
Average fragmentation = 0
Maximum fragmentation = 0
Minimum injected packet rate = 0.066 (at node 2158)
Average injected packet rate = 0.0999216
Maximum injected packet rate = 0.144 (at node 1986)
Minimum accepted packet rate = 0.068 (at node 3778)
Average accepted packet rate = 0.0999465
Maximum accepted packet rate = 0.142 (at node 2172)
Minimum injected flit rate = 0.066 (at node 2158)
Average injected flit rate = 0.0999216
Maximum injected flit rate = 0.144 (at node 1986)
Minimum accepted flit rate = 0.068 (at node 3778)
Average accepted flit rate = 0.0999465
Maximum accepted flit rate = 0.142 (at node 2172)
Average injected packet length = 1
Average accepted packet length = 1
Total in-flight flits = 11002 (11002 measured)
latency change    = 0.000502539
throughput change = 0.00133861
1
Class 0:
Minimum packet latency = 5
Average packet latency = 13.6603
Maximum packet latency = 29
Minimum network latency = 5
Average network latency = 13.6603
Maximum network latency = 29
Slowest packet = 1900636
Minimum flit latency = 5
Average flit latency = 13.6626
Maximum flit latency = 29
Slowest flit = 1900636
Minimum fragmentation = 0
Average fragmentation = 0
Maximum fragmentation = 0
Minimum injected packet rate = 0.0733333 (at node 2158)
Average injected packet rate = 0.100033
Maximum injected packet rate = 0.132667 (at node 1986)
Minimum accepted packet rate = 0.0746667 (at node 7524)
Average accepted packet rate = 0.100033
Maximum accepted packet rate = 0.132667 (at node 2172)
Minimum injected flit rate = 0.0733333 (at node 2158)
Average injected flit rate = 0.100033
Maximum injected flit rate = 0.132667 (at node 1986)
Minimum accepted flit rate = 0.0746667 (at node 7524)
Average accepted flit rate = 0.100033
Maximum accepted flit rate = 0.132667 (at node 2172)
Average injected packet length = 1
Average accepted packet length = 1
Total in-flight flits = 11201 (11201 measured)
latency change    = 8.57037e-05
throughput change = 0.000867224
Draining all recorded packets ...
Draining remaining packets ...
Time taken is 3050 cycles
====== Traffic class 0 ======
Overall minimum packet latency = 5 (1 samples)
Overall average packet latency = 13.6629 (1 samples)
Overall maximum packet latency = 29 (1 samples)
Overall minimum network latency = 5 (1 samples)
Overall average network latency = 13.6629 (1 samples)
Overall maximum network latency = 29 (1 samples)
Overall minimum flit latency = 5 (1 samples)
Overall average flit latency = 13.6647 (1 samples)
Overall maximum flit latency = 29 (1 samples)
Overall minimum fragmentation = 0 (1 samples)
Overall average fragmentation = 0 (1 samples)
Overall maximum fragmentation = 0 (1 samples)
Overall minimum injected packet rate = 0.0733333 (1 samples)
Overall average injected packet rate = 0.100033 (1 samples)
Overall maximum injected packet rate = 0.132667 (1 samples)
Overall minimum accepted packet rate = 0.0746667 (1 samples)
Overall average accepted packet rate = 0.100033 (1 samples)
Overall maximum accepted packet rate = 0.132667 (1 samples)
Overall minimum injected flit rate = 0.0733333 (1 samples)
Overall average injected flit rate = 0.100033 (1 samples)
Overall maximum injected flit rate = 0.132667 (1 samples)
Overall minimum accepted flit rate = 0.0746667 (1 samples)
Overall average accepted flit rate = 0.100033 (1 samples)
Overall maximum accepted flit rate = 0.132667 (1 samples)
Overall average injected packet size = 1 (1 samples)
Overall average accepted packet size = 1 (1 samples)
Overall average hops = 3.85371 (1 samples)
Total run time 264.053
