BEGIN Configuration File: ./FBF-3.conf
injection_rate = 0.2;
traffic = uniform;
routing_function = ran_min;
vc_buf_size = 16;
topology = flatfly;
use_noc_latency = 0;
hold_switch_for_packet=0;

c = 4;
k = 8;
n = 2;

x  = 8;
y  = 8;
xr = 2;
yr = 2;

packet_size  = 1;
num_vcs      = 2;
vc_allocator = separable_input_first; 
sw_allocator = separable_input_first;

alloc_iters   = 1;
sample_period = 500;

wait_for_tail_credit = 0;
use_read_write       = 0;

credit_delay   = 2;
routing_delay  = 0;
vc_alloc_delay = 1;
sw_alloc_delay = 1;
st_final_delay = 1;

input_speedup     = 1;
output_speedup    = 1;
internal_speedup  = 2.0;

warmup_periods = 3;
sim_count      = 1;

priority = none;
injection_rate_uses_flits=1;

END Configuration File: ./FBF-3.conf
Number of nodes: 256
Number of routers: 64
 Flat Bufferfly 
 k = 8 n = 2 c = 4
 each switch - total radix =  18
 # of switches = 64
 # of channels = 896
 # of nodes ( size of network ) = 256
0
Class 0:
Minimum packet latency = 5
Average packet latency = 10.4401
Maximum packet latency = 16
Minimum network latency = 5
Average network latency = 10.4401
Maximum network latency = 16
Slowest packet = 9217
Minimum flit latency = 5
Average flit latency = 10.4401
Maximum flit latency = 16
Slowest flit = 9217
Minimum fragmentation = 0
Average fragmentation = 0
Maximum fragmentation = 0
Minimum injected packet rate = 0.158 (at node 1)
Average injected packet rate = 0.198797
Maximum injected packet rate = 0.254 (at node 239)
Minimum accepted packet rate = 0.136 (at node 15)
Average accepted packet rate = 0.194836
Maximum accepted packet rate = 0.244 (at node 248)
Minimum injected flit rate = 0.158 (at node 1)
Average injected flit rate = 0.198797
Maximum injected flit rate = 0.254 (at node 239)
Minimum accepted flit rate = 0.136 (at node 15)
Average accepted flit rate = 0.194836
Maximum accepted flit rate = 0.244 (at node 248)
Average injected packet length = 1
Average accepted packet length = 1
Total in-flight flits = 507 (0 measured)
latency change    = 1
throughput change = 1
0
Class 0:
Minimum packet latency = 5
Average packet latency = 10.4373
Maximum packet latency = 16
Minimum network latency = 5
Average network latency = 10.4373
Maximum network latency = 16
Slowest packet = 9217
Minimum flit latency = 5
Average flit latency = 10.4373
Maximum flit latency = 16
Slowest flit = 9217
Minimum fragmentation = 0
Average fragmentation = 0
Maximum fragmentation = 0
Minimum injected packet rate = 0.17 (at node 104)
Average injected packet rate = 0.199156
Maximum injected packet rate = 0.232 (at node 22)
Minimum accepted packet rate = 0.164 (at node 95)
Average accepted packet rate = 0.196934
Maximum accepted packet rate = 0.243 (at node 147)
Minimum injected flit rate = 0.17 (at node 104)
Average injected flit rate = 0.199156
Maximum injected flit rate = 0.232 (at node 22)
Minimum accepted flit rate = 0.164 (at node 95)
Average accepted flit rate = 0.196934
Maximum accepted flit rate = 0.243 (at node 147)
Average injected packet length = 1
Average accepted packet length = 1
Total in-flight flits = 569 (0 measured)
latency change    = 0.000260965
throughput change = 0.0106516
0
Class 0:
Minimum packet latency = 5
Average packet latency = 10.4541
Maximum packet latency = 16
Minimum network latency = 5
Average network latency = 10.4541
Maximum network latency = 16
Slowest packet = 53576
Minimum flit latency = 5
Average flit latency = 10.4541
Maximum flit latency = 16
Slowest flit = 53576
Minimum fragmentation = 0
Average fragmentation = 0
Maximum fragmentation = 0
Minimum injected packet rate = 0.148 (at node 29)
Average injected packet rate = 0.199695
Maximum injected packet rate = 0.264 (at node 39)
Minimum accepted packet rate = 0.154 (at node 106)
Average accepted packet rate = 0.200016
Maximum accepted packet rate = 0.258 (at node 155)
Minimum injected flit rate = 0.148 (at node 29)
Average injected flit rate = 0.199695
Maximum injected flit rate = 0.264 (at node 39)
Minimum accepted flit rate = 0.154 (at node 106)
Average accepted flit rate = 0.200016
Maximum accepted flit rate = 0.258 (at node 155)
Average injected packet length = 1
Average accepted packet length = 1
Total in-flight flits = 528 (0 measured)
latency change    = 0.00160273
throughput change = 0.015409
Warmed up ...Time used is 1500 cycles
1
Class 0:
Minimum packet latency = 5
Average packet latency = 10.4386
Maximum packet latency = 16
Minimum network latency = 5
Average network latency = 10.4386
Maximum network latency = 16
Slowest packet = 83766
Minimum flit latency = 5
Average flit latency = 10.4428
Maximum flit latency = 16
Slowest flit = 83766
Minimum fragmentation = 0
Average fragmentation = 0
Maximum fragmentation = 0
Minimum injected packet rate = 0.142 (at node 174)
Average injected packet rate = 0.1995
Maximum injected packet rate = 0.252 (at node 122)
Minimum accepted packet rate = 0.148 (at node 216)
Average accepted packet rate = 0.199406
Maximum accepted packet rate = 0.266 (at node 55)
Minimum injected flit rate = 0.142 (at node 174)
Average injected flit rate = 0.1995
Maximum injected flit rate = 0.252 (at node 122)
Minimum accepted flit rate = 0.148 (at node 216)
Average accepted flit rate = 0.199406
Maximum accepted flit rate = 0.266 (at node 55)
Average injected packet length = 1
Average accepted packet length = 1
Total in-flight flits = 540 (540 measured)
latency change    = 0.00149015
throughput change = 0.00305595
1
Class 0:
Minimum packet latency = 5
Average packet latency = 10.4379
Maximum packet latency = 16
Minimum network latency = 5
Average network latency = 10.4379
Maximum network latency = 16
Slowest packet = 83766
Minimum flit latency = 5
Average flit latency = 10.4401
Maximum flit latency = 16
Slowest flit = 83766
Minimum fragmentation = 0
Average fragmentation = 0
Maximum fragmentation = 0
Minimum injected packet rate = 0.165 (at node 191)
Average injected packet rate = 0.200563
Maximum injected packet rate = 0.24 (at node 53)
Minimum accepted packet rate = 0.156 (at node 59)
Average accepted packet rate = 0.200523
Maximum accepted packet rate = 0.243 (at node 14)
Minimum injected flit rate = 0.165 (at node 191)
Average injected flit rate = 0.200563
Maximum injected flit rate = 0.24 (at node 53)
Minimum accepted flit rate = 0.156 (at node 59)
Average accepted flit rate = 0.200523
Maximum accepted flit rate = 0.243 (at node 14)
Average injected packet length = 1
Average accepted packet length = 1
Total in-flight flits = 538 (538 measured)
latency change    = 6.03042e-05
throughput change = 0.00557136
1
Class 0:
Minimum packet latency = 5
Average packet latency = 10.4394
Maximum packet latency = 16
Minimum network latency = 5
Average network latency = 10.4394
Maximum network latency = 16
Slowest packet = 83766
Minimum flit latency = 5
Average flit latency = 10.4409
Maximum flit latency = 16
Slowest flit = 83766
Minimum fragmentation = 0
Average fragmentation = 0
Maximum fragmentation = 0
Minimum injected packet rate = 0.169333 (at node 174)
Average injected packet rate = 0.200125
Maximum injected packet rate = 0.230667 (at node 163)
Minimum accepted packet rate = 0.166 (at node 59)
Average accepted packet rate = 0.200023
Maximum accepted packet rate = 0.233333 (at node 181)
Minimum injected flit rate = 0.169333 (at node 174)
Average injected flit rate = 0.200125
Maximum injected flit rate = 0.230667 (at node 163)
Minimum accepted flit rate = 0.166 (at node 59)
Average accepted flit rate = 0.200023
Maximum accepted flit rate = 0.233333 (at node 181)
Average injected packet length = 1
Average accepted packet length = 1
Total in-flight flits = 567 (567 measured)
latency change    = 0.00014563
throughput change = 0.00249971
Draining all recorded packets ...
Draining remaining packets ...
Time taken is 3028 cycles
====== Traffic class 0 ======
Overall minimum packet latency = 5 (1 samples)
Overall average packet latency = 10.4412 (1 samples)
Overall maximum packet latency = 16 (1 samples)
Overall minimum network latency = 5 (1 samples)
Overall average network latency = 10.4412 (1 samples)
Overall maximum network latency = 16 (1 samples)
Overall minimum flit latency = 5 (1 samples)
Overall average flit latency = 10.4418 (1 samples)
Overall maximum flit latency = 16 (1 samples)
Overall minimum fragmentation = 0 (1 samples)
Overall average fragmentation = 0 (1 samples)
Overall maximum fragmentation = 0 (1 samples)
Overall minimum injected packet rate = 0.169333 (1 samples)
Overall average injected packet rate = 0.200125 (1 samples)
Overall maximum injected packet rate = 0.230667 (1 samples)
Overall minimum accepted packet rate = 0.166 (1 samples)
Overall average accepted packet rate = 0.200023 (1 samples)
Overall maximum accepted packet rate = 0.233333 (1 samples)
Overall minimum injected flit rate = 0.169333 (1 samples)
Overall average injected flit rate = 0.200125 (1 samples)
Overall maximum injected flit rate = 0.230667 (1 samples)
Overall minimum accepted flit rate = 0.166 (1 samples)
Overall average accepted flit rate = 0.200023 (1 samples)
Overall maximum accepted flit rate = 0.233333 (1 samples)
Overall average injected packet size = 1 (1 samples)
Overall average accepted packet size = 1 (1 samples)
Overall average hops = 2.75008 (1 samples)
Total run time 5.93669
