BEGIN Configuration File: ./FBF-3.conf
injection_rate = 0.01;
traffic = uniform;
routing_function = ran_min;
vc_buf_size = 16;
topology = flatfly;
use_noc_latency = 0;
hold_switch_for_packet=0;

c = 4;
k = 8;
n = 2;

x  = 8;
y  = 8;
xr = 2;
yr = 2;

packet_size  = 1;
num_vcs      = 2;
vc_allocator = separable_input_first; 
sw_allocator = separable_input_first;

alloc_iters   = 1;
sample_period = 500;

wait_for_tail_credit = 0;
use_read_write       = 0;

credit_delay   = 2;
routing_delay  = 0;
vc_alloc_delay = 1;
sw_alloc_delay = 1;
st_final_delay = 1;

input_speedup     = 1;
output_speedup    = 1;
internal_speedup  = 2.0;

warmup_periods = 3;
sim_count      = 1;

priority = none;
injection_rate_uses_flits=1;

END Configuration File: ./FBF-3.conf
Number of nodes: 256
Number of routers: 64
 Flat Bufferfly 
 k = 8 n = 2 c = 4
 each switch - total radix =  18
 # of switches = 64
 # of channels = 896
 # of nodes ( size of network ) = 256
0
Class 0:
Minimum packet latency = 5
Average packet latency = 10.2426
Maximum packet latency = 12
Minimum network latency = 5
Average network latency = 10.2426
Maximum network latency = 12
Slowest packet = 76
Minimum flit latency = 5
Average flit latency = 10.2426
Maximum flit latency = 12
Slowest flit = 76
Minimum fragmentation = 0
Average fragmentation = 0
Maximum fragmentation = 0
Minimum injected packet rate = 0 (at node 166)
Average injected packet rate = 0.00977344
Maximum injected packet rate = 0.024 (at node 35)
Minimum accepted packet rate = 0 (at node 61)
Average accepted packet rate = 0.0095625
Maximum accepted packet rate = 0.02 (at node 38)
Minimum injected flit rate = 0 (at node 166)
Average injected flit rate = 0.00977344
Maximum injected flit rate = 0.024 (at node 35)
Minimum accepted flit rate = 0 (at node 61)
Average accepted flit rate = 0.0095625
Maximum accepted flit rate = 0.02 (at node 38)
Average injected packet length = 1
Average accepted packet length = 1
Total in-flight flits = 27 (0 measured)
latency change    = 1
throughput change = 1
0
Class 0:
Minimum packet latency = 5
Average packet latency = 10.2613
Maximum packet latency = 12
Minimum network latency = 5
Average network latency = 10.2613
Maximum network latency = 12
Slowest packet = 76
Minimum flit latency = 5
Average flit latency = 10.2613
Maximum flit latency = 12
Slowest flit = 76
Minimum fragmentation = 0
Average fragmentation = 0
Maximum fragmentation = 0
Minimum injected packet rate = 0.003 (at node 30)
Average injected packet rate = 0.00998047
Maximum injected packet rate = 0.022 (at node 170)
Minimum accepted packet rate = 0 (at node 179)
Average accepted packet rate = 0.00986719
Maximum accepted packet rate = 0.017 (at node 65)
Minimum injected flit rate = 0.003 (at node 30)
Average injected flit rate = 0.00998047
Maximum injected flit rate = 0.022 (at node 170)
Minimum accepted flit rate = 0 (at node 179)
Average accepted flit rate = 0.00986719
Maximum accepted flit rate = 0.017 (at node 65)
Average injected packet length = 1
Average accepted packet length = 1
Total in-flight flits = 29 (0 measured)
latency change    = 0.00181611
throughput change = 0.0308789
0
Class 0:
Minimum packet latency = 5
Average packet latency = 10.2324
Maximum packet latency = 12
Minimum network latency = 5
Average network latency = 10.2324
Maximum network latency = 12
Slowest packet = 2600
Minimum flit latency = 5
Average flit latency = 10.2324
Maximum flit latency = 12
Slowest flit = 2600
Minimum fragmentation = 0
Average fragmentation = 0
Maximum fragmentation = 0
Minimum injected packet rate = 0 (at node 94)
Average injected packet rate = 0.00953906
Maximum injected packet rate = 0.02 (at node 10)
Minimum accepted packet rate = 0 (at node 1)
Average accepted packet rate = 0.00954687
Maximum accepted packet rate = 0.022 (at node 172)
Minimum injected flit rate = 0 (at node 94)
Average injected flit rate = 0.00953906
Maximum injected flit rate = 0.02 (at node 10)
Minimum accepted flit rate = 0 (at node 1)
Average accepted flit rate = 0.00954687
Maximum accepted flit rate = 0.022 (at node 172)
Average injected packet length = 1
Average accepted packet length = 1
Total in-flight flits = 28 (0 measured)
latency change    = 0.00282209
throughput change = 0.0335516
Warmed up ...Time used is 1500 cycles
1
Class 0:
Minimum packet latency = 5
Average packet latency = 10.2123
Maximum packet latency = 12
Minimum network latency = 5
Average network latency = 10.2123
Maximum network latency = 12
Slowest packet = 4045
Minimum flit latency = 5
Average flit latency = 10.2154
Maximum flit latency = 12
Slowest flit = 4045
Minimum fragmentation = 0
Average fragmentation = 0
Maximum fragmentation = 0
Minimum injected packet rate = 0 (at node 12)
Average injected packet rate = 0.0101563
Maximum injected packet rate = 0.024 (at node 9)
Minimum accepted packet rate = 0 (at node 212)
Average accepted packet rate = 0.0101172
Maximum accepted packet rate = 0.024 (at node 115)
Minimum injected flit rate = 0 (at node 12)
Average injected flit rate = 0.0101563
Maximum injected flit rate = 0.024 (at node 9)
Minimum accepted flit rate = 0 (at node 212)
Average accepted flit rate = 0.0101172
Maximum accepted flit rate = 0.024 (at node 115)
Average injected packet length = 1
Average accepted packet length = 1
Total in-flight flits = 33 (33 measured)
latency change    = 0.00196756
throughput change = 0.0563707
1
Class 0:
Minimum packet latency = 5
Average packet latency = 10.2329
Maximum packet latency = 12
Minimum network latency = 5
Average network latency = 10.2329
Maximum network latency = 12
Slowest packet = 4045
Minimum flit latency = 5
Average flit latency = 10.2343
Maximum flit latency = 12
Slowest flit = 4045
Minimum fragmentation = 0
Average fragmentation = 0
Maximum fragmentation = 0
Minimum injected packet rate = 0.003 (at node 6)
Average injected packet rate = 0.00992578
Maximum injected packet rate = 0.02 (at node 136)
Minimum accepted packet rate = 0.001 (at node 10)
Average accepted packet rate = 0.00992188
Maximum accepted packet rate = 0.021 (at node 142)
Minimum injected flit rate = 0.003 (at node 6)
Average injected flit rate = 0.00992578
Maximum injected flit rate = 0.02 (at node 136)
Minimum accepted flit rate = 0.001 (at node 10)
Average accepted flit rate = 0.00992188
Maximum accepted flit rate = 0.021 (at node 142)
Average injected packet length = 1
Average accepted packet length = 1
Total in-flight flits = 29 (29 measured)
latency change    = 0.00201015
throughput change = 0.019685
1
Class 0:
Minimum packet latency = 5
Average packet latency = 10.2381
Maximum packet latency = 12
Minimum network latency = 5
Average network latency = 10.2381
Maximum network latency = 12
Slowest packet = 4045
Minimum flit latency = 5
Average flit latency = 10.239
Maximum flit latency = 12
Slowest flit = 4045
Minimum fragmentation = 0
Average fragmentation = 0
Maximum fragmentation = 0
Minimum injected packet rate = 0.004 (at node 27)
Average injected packet rate = 0.0100938
Maximum injected packet rate = 0.018 (at node 136)
Minimum accepted packet rate = 0.00333333 (at node 10)
Average accepted packet rate = 0.0100911
Maximum accepted packet rate = 0.018 (at node 9)
Minimum injected flit rate = 0.004 (at node 27)
Average injected flit rate = 0.0100938
Maximum injected flit rate = 0.018 (at node 136)
Minimum accepted flit rate = 0.00333333 (at node 10)
Average accepted flit rate = 0.0100911
Maximum accepted flit rate = 0.018 (at node 9)
Average injected packet length = 1
Average accepted packet length = 1
Total in-flight flits = 29 (29 measured)
latency change    = 0.000510392
throughput change = 0.0167742
1
Class 0:
Minimum packet latency = 5
Average packet latency = 10.2372
Maximum packet latency = 12
Minimum network latency = 5
Average network latency = 10.2372
Maximum network latency = 12
Slowest packet = 4045
Minimum flit latency = 5
Average flit latency = 10.2379
Maximum flit latency = 12
Slowest flit = 4045
Minimum fragmentation = 0
Average fragmentation = 0
Maximum fragmentation = 0
Minimum injected packet rate = 0.0045 (at node 144)
Average injected packet rate = 0.0100254
Maximum injected packet rate = 0.016 (at node 136)
Minimum accepted packet rate = 0.004 (at node 10)
Average accepted packet rate = 0.0100332
Maximum accepted packet rate = 0.018 (at node 151)
Minimum injected flit rate = 0.0045 (at node 144)
Average injected flit rate = 0.0100254
Maximum injected flit rate = 0.016 (at node 136)
Minimum accepted flit rate = 0.004 (at node 10)
Average accepted flit rate = 0.0100332
Maximum accepted flit rate = 0.018 (at node 151)
Average injected packet length = 1
Average accepted packet length = 1
Total in-flight flits = 24 (24 measured)
latency change    = 8.58822e-05
throughput change = 0.0057751
Draining all recorded packets ...
Draining remaining packets ...
Time taken is 3526 cycles
====== Traffic class 0 ======
Overall minimum packet latency = 5 (1 samples)
Overall average packet latency = 10.2379 (1 samples)
Overall maximum packet latency = 12 (1 samples)
Overall minimum network latency = 5 (1 samples)
Overall average network latency = 10.2379 (1 samples)
Overall maximum network latency = 12 (1 samples)
Overall minimum flit latency = 5 (1 samples)
Overall average flit latency = 10.24 (1 samples)
Overall maximum flit latency = 12 (1 samples)
Overall minimum fragmentation = 0 (1 samples)
Overall average fragmentation = 0 (1 samples)
Overall maximum fragmentation = 0 (1 samples)
Overall minimum injected packet rate = 0.0045 (1 samples)
Overall average injected packet rate = 0.0100254 (1 samples)
Overall maximum injected packet rate = 0.016 (1 samples)
Overall minimum accepted packet rate = 0.004 (1 samples)
Overall average accepted packet rate = 0.0100332 (1 samples)
Overall maximum accepted packet rate = 0.018 (1 samples)
Overall minimum injected flit rate = 0.0045 (1 samples)
Overall average injected flit rate = 0.0100254 (1 samples)
Overall maximum injected flit rate = 0.016 (1 samples)
Overall minimum accepted flit rate = 0.004 (1 samples)
Overall average accepted flit rate = 0.0100332 (1 samples)
Overall maximum accepted flit rate = 0.018 (1 samples)
Overall average injected packet size = 1 (1 samples)
Overall average accepted packet size = 1 (1 samples)
Overall average hops = 2.74342 (1 samples)
Total run time 1.65717
