BEGIN Configuration File: ./FBF-3.conf
injection_rate = 0.8;
traffic = uniform;
routing_function = ugal;
vc_buf_size = 16;
topology = flatfly;
use_noc_latency = 0;
hold_switch_for_packet=0;

c = 4;
k = 8;
n = 2;

x  = 8;
y  = 8;
xr = 2;
yr = 2;

packet_size  = 1;
num_vcs      = 2;
vc_allocator = separable_input_first; 
sw_allocator = separable_input_first;

alloc_iters   = 1;
sample_period = 500;

wait_for_tail_credit = 0;
use_read_write       = 0;

credit_delay   = 2;
routing_delay  = 0;
vc_alloc_delay = 1;
sw_alloc_delay = 1;
st_final_delay = 1;

input_speedup     = 1;
output_speedup    = 1;
internal_speedup  = 2.0;

warmup_periods = 3;
sim_count      = 1;

priority = none;
injection_rate_uses_flits=1;

END Configuration File: ./FBF-3.conf
Number of nodes: 256
Number of routers: 64
 Flat Bufferfly 
 k = 8 n = 2 c = 4
 each switch - total radix =  18
 # of switches = 64
 # of channels = 896
 # of nodes ( size of network ) = 256
0
Class 0:
Minimum packet latency = 5
Average packet latency = 13.4745
Maximum packet latency = 39
Minimum network latency = 5
Average network latency = 13.4745
Maximum network latency = 39
Slowest packet = 66170
Minimum flit latency = 5
Average flit latency = 13.4745
Maximum flit latency = 39
Slowest flit = 66170
Minimum fragmentation = 0
Average fragmentation = 0
Maximum fragmentation = 0
Minimum injected packet rate = 0.738 (at node 2)
Average injected packet rate = 0.799844
Maximum injected packet rate = 0.848 (at node 45)
Minimum accepted packet rate = 0.694 (at node 242)
Average accepted packet rate = 0.778477
Maximum accepted packet rate = 0.874 (at node 66)
Minimum injected flit rate = 0.738 (at node 2)
Average injected flit rate = 0.799844
Maximum injected flit rate = 0.848 (at node 45)
Minimum accepted flit rate = 0.694 (at node 242)
Average accepted flit rate = 0.778477
Maximum accepted flit rate = 0.874 (at node 66)
Average injected packet length = 1
Average accepted packet length = 1
Total in-flight flits = 2735 (0 measured)
latency change    = 1
throughput change = 1
0
Class 0:
Minimum packet latency = 5
Average packet latency = 13.555
Maximum packet latency = 45
Minimum network latency = 5
Average network latency = 13.555
Maximum network latency = 45
Slowest packet = 139384
Minimum flit latency = 5
Average flit latency = 13.555
Maximum flit latency = 45
Slowest flit = 139384
Minimum fragmentation = 0
Average fragmentation = 0
Maximum fragmentation = 0
Minimum injected packet rate = 0.761 (at node 2)
Average injected packet rate = 0.79868
Maximum injected packet rate = 0.832 (at node 10)
Minimum accepted packet rate = 0.717 (at node 204)
Average accepted packet rate = 0.787992
Maximum accepted packet rate = 0.857 (at node 230)
Minimum injected flit rate = 0.761 (at node 2)
Average injected flit rate = 0.79868
Maximum injected flit rate = 0.832 (at node 10)
Minimum accepted flit rate = 0.717 (at node 204)
Average accepted flit rate = 0.787992
Maximum accepted flit rate = 0.857 (at node 230)
Average injected packet length = 1
Average accepted packet length = 1
Total in-flight flits = 2736 (0 measured)
latency change    = 0.00593842
throughput change = 0.0120758
0
Class 0:
Minimum packet latency = 5
Average packet latency = 13.5931
Maximum packet latency = 44
Minimum network latency = 5
Average network latency = 13.5931
Maximum network latency = 44
Slowest packet = 223334
Minimum flit latency = 5
Average flit latency = 13.5931
Maximum flit latency = 44
Slowest flit = 223334
Minimum fragmentation = 0
Average fragmentation = 0
Maximum fragmentation = 0
Minimum injected packet rate = 0.74 (at node 171)
Average injected packet rate = 0.799492
Maximum injected packet rate = 0.842 (at node 31)
Minimum accepted packet rate = 0.688 (at node 210)
Average accepted packet rate = 0.799461
Maximum accepted packet rate = 0.952 (at node 131)
Minimum injected flit rate = 0.74 (at node 171)
Average injected flit rate = 0.799492
Maximum injected flit rate = 0.842 (at node 31)
Minimum accepted flit rate = 0.688 (at node 210)
Average accepted flit rate = 0.799461
Maximum accepted flit rate = 0.952 (at node 131)
Average injected packet length = 1
Average accepted packet length = 1
Total in-flight flits = 2740 (0 measured)
latency change    = 0.00279744
throughput change = 0.0143456
Warmed up ...Time used is 1500 cycles
1
Class 0:
Minimum packet latency = 5
Average packet latency = 13.6305
Maximum packet latency = 41
Minimum network latency = 5
Average network latency = 13.6305
Maximum network latency = 41
Slowest packet = 343557
Minimum flit latency = 5
Average flit latency = 13.6522
Maximum flit latency = 41
Slowest flit = 343557
Minimum fragmentation = 0
Average fragmentation = 0
Maximum fragmentation = 0
Minimum injected packet rate = 0.754 (at node 175)
Average injected packet rate = 0.799555
Maximum injected packet rate = 0.838 (at node 52)
Minimum accepted packet rate = 0.68 (at node 53)
Average accepted packet rate = 0.799109
Maximum accepted packet rate = 0.934 (at node 16)
Minimum injected flit rate = 0.754 (at node 175)
Average injected flit rate = 0.799555
Maximum injected flit rate = 0.838 (at node 52)
Minimum accepted flit rate = 0.68 (at node 53)
Average accepted flit rate = 0.799109
Maximum accepted flit rate = 0.934 (at node 16)
Average injected packet length = 1
Average accepted packet length = 1
Total in-flight flits = 2797 (2797 measured)
latency change    = 0.002748
throughput change = 0.000439943
1
Class 0:
Minimum packet latency = 5
Average packet latency = 13.6105
Maximum packet latency = 41
Minimum network latency = 5
Average network latency = 13.6105
Maximum network latency = 41
Slowest packet = 343557
Minimum flit latency = 5
Average flit latency = 13.6216
Maximum flit latency = 41
Slowest flit = 343557
Minimum fragmentation = 0
Average fragmentation = 0
Maximum fragmentation = 0
Minimum injected packet rate = 0.767 (at node 181)
Average injected packet rate = 0.799309
Maximum injected packet rate = 0.831 (at node 52)
Minimum accepted packet rate = 0.726 (at node 172)
Average accepted packet rate = 0.799258
Maximum accepted packet rate = 0.879 (at node 120)
Minimum injected flit rate = 0.767 (at node 181)
Average injected flit rate = 0.799309
Maximum injected flit rate = 0.831 (at node 52)
Minimum accepted flit rate = 0.726 (at node 172)
Average accepted flit rate = 0.799258
Maximum accepted flit rate = 0.879 (at node 120)
Average injected packet length = 1
Average accepted packet length = 1
Total in-flight flits = 2753 (2753 measured)
latency change    = 0.00146842
throughput change = 0.000185719
1
Class 0:
Minimum packet latency = 5
Average packet latency = 13.5974
Maximum packet latency = 41
Minimum network latency = 5
Average network latency = 13.5974
Maximum network latency = 41
Slowest packet = 343557
Minimum flit latency = 5
Average flit latency = 13.6049
Maximum flit latency = 41
Slowest flit = 343557
Minimum fragmentation = 0
Average fragmentation = 0
Maximum fragmentation = 0
Minimum injected packet rate = 0.774667 (at node 1)
Average injected packet rate = 0.79912
Maximum injected packet rate = 0.826 (at node 60)
Minimum accepted packet rate = 0.740667 (at node 125)
Average accepted packet rate = 0.799076
Maximum accepted packet rate = 0.852667 (at node 242)
Minimum injected flit rate = 0.774667 (at node 1)
Average injected flit rate = 0.79912
Maximum injected flit rate = 0.826 (at node 60)
Minimum accepted flit rate = 0.740667 (at node 125)
Average accepted flit rate = 0.799076
Maximum accepted flit rate = 0.852667 (at node 242)
Average injected packet length = 1
Average accepted packet length = 1
Total in-flight flits = 2757 (2757 measured)
latency change    = 0.0009686
throughput change = 0.000228128
Draining all recorded packets ...
Draining remaining packets ...
Time taken is 3055 cycles
====== Traffic class 0 ======
Overall minimum packet latency = 5 (1 samples)
Overall average packet latency = 13.6047 (1 samples)
Overall maximum packet latency = 41 (1 samples)
Overall minimum network latency = 5 (1 samples)
Overall average network latency = 13.6047 (1 samples)
Overall maximum network latency = 41 (1 samples)
Overall minimum flit latency = 5 (1 samples)
Overall average flit latency = 13.6069 (1 samples)
Overall maximum flit latency = 41 (1 samples)
Overall minimum fragmentation = 0 (1 samples)
Overall average fragmentation = 0 (1 samples)
Overall maximum fragmentation = 0 (1 samples)
Overall minimum injected packet rate = 0.774667 (1 samples)
Overall average injected packet rate = 0.79912 (1 samples)
Overall maximum injected packet rate = 0.826 (1 samples)
Overall minimum accepted packet rate = 0.740667 (1 samples)
Overall average accepted packet rate = 0.799076 (1 samples)
Overall maximum accepted packet rate = 0.852667 (1 samples)
Overall minimum injected flit rate = 0.774667 (1 samples)
Overall average injected flit rate = 0.79912 (1 samples)
Overall maximum injected flit rate = 0.826 (1 samples)
Overall minimum accepted flit rate = 0.740667 (1 samples)
Overall average accepted flit rate = 0.799076 (1 samples)
Overall maximum accepted flit rate = 0.852667 (1 samples)
Overall average injected packet size = 1 (1 samples)
Overall average accepted packet size = 1 (1 samples)
Overall average hops = 2.87484 (1 samples)
Total run time 21.906
