BEGIN Configuration File: ./FBF-3.conf
injection_rate = 0.3;
traffic = uniform;
routing_function = adaptive_xyyx;
vc_buf_size = 16;
topology = flatfly;
use_noc_latency = 0;
hold_switch_for_packet=0;

c = 4;
k = 8;
n = 2;

x  = 8;
y  = 8;
xr = 2;
yr = 2;

packet_size  = 1;
num_vcs      = 2;
vc_allocator = separable_input_first; 
sw_allocator = separable_input_first;

alloc_iters   = 1;
sample_period = 500;

wait_for_tail_credit = 0;
use_read_write       = 0;

credit_delay   = 2;
routing_delay  = 0;
vc_alloc_delay = 1;
sw_alloc_delay = 1;
st_final_delay = 1;

input_speedup     = 1;
output_speedup    = 1;
internal_speedup  = 2.0;

warmup_periods = 3;
sim_count      = 1;

priority = none;
injection_rate_uses_flits=1;

END Configuration File: ./FBF-3.conf
Number of nodes: 256
Number of routers: 64
 Flat Bufferfly 
 k = 8 n = 2 c = 4
 each switch - total radix =  18
 # of switches = 64
 # of channels = 896
 # of nodes ( size of network ) = 256
0
Class 0:
Minimum packet latency = 5
Average packet latency = 10.6077
Maximum packet latency = 18
Minimum network latency = 5
Average network latency = 10.6077
Maximum network latency = 18
Slowest packet = 7377
Minimum flit latency = 5
Average flit latency = 10.6077
Maximum flit latency = 18
Slowest flit = 7377
Minimum fragmentation = 0
Average fragmentation = 0
Maximum fragmentation = 0
Minimum injected packet rate = 0.238 (at node 172)
Average injected packet rate = 0.299031
Maximum injected packet rate = 0.348 (at node 22)
Minimum accepted packet rate = 0.212 (at node 129)
Average accepted packet rate = 0.292977
Maximum accepted packet rate = 0.36 (at node 13)
Minimum injected flit rate = 0.238 (at node 172)
Average injected flit rate = 0.299031
Maximum injected flit rate = 0.348 (at node 22)
Minimum accepted flit rate = 0.212 (at node 129)
Average accepted flit rate = 0.292977
Maximum accepted flit rate = 0.36 (at node 13)
Average injected packet length = 1
Average accepted packet length = 1
Total in-flight flits = 775 (0 measured)
latency change    = 1
throughput change = 1
0
Class 0:
Minimum packet latency = 5
Average packet latency = 10.6034
Maximum packet latency = 18
Minimum network latency = 5
Average network latency = 10.6034
Maximum network latency = 18
Slowest packet = 7377
Minimum flit latency = 5
Average flit latency = 10.6034
Maximum flit latency = 18
Slowest flit = 7377
Minimum fragmentation = 0
Average fragmentation = 0
Maximum fragmentation = 0
Minimum injected packet rate = 0.262 (at node 203)
Average injected packet rate = 0.299043
Maximum injected packet rate = 0.337 (at node 223)
Minimum accepted packet rate = 0.245 (at node 129)
Average accepted packet rate = 0.295664
Maximum accepted packet rate = 0.351 (at node 7)
Minimum injected flit rate = 0.262 (at node 203)
Average injected flit rate = 0.299043
Maximum injected flit rate = 0.337 (at node 223)
Minimum accepted flit rate = 0.245 (at node 129)
Average accepted flit rate = 0.295664
Maximum accepted flit rate = 0.351 (at node 7)
Average injected packet length = 1
Average accepted packet length = 1
Total in-flight flits = 865 (0 measured)
latency change    = 0.000411316
throughput change = 0.00908971
0
Class 0:
Minimum packet latency = 5
Average packet latency = 10.597
Maximum packet latency = 17
Minimum network latency = 5
Average network latency = 10.597
Maximum network latency = 17
Slowest packet = 83771
Minimum flit latency = 5
Average flit latency = 10.597
Maximum flit latency = 17
Slowest flit = 83771
Minimum fragmentation = 0
Average fragmentation = 0
Maximum fragmentation = 0
Minimum injected packet rate = 0.238 (at node 29)
Average injected packet rate = 0.298266
Maximum injected packet rate = 0.358 (at node 23)
Minimum accepted packet rate = 0.238 (at node 60)
Average accepted packet rate = 0.298734
Maximum accepted packet rate = 0.368 (at node 190)
Minimum injected flit rate = 0.238 (at node 29)
Average injected flit rate = 0.298266
Maximum injected flit rate = 0.358 (at node 23)
Minimum accepted flit rate = 0.238 (at node 60)
Average accepted flit rate = 0.298734
Maximum accepted flit rate = 0.368 (at node 190)
Average injected packet length = 1
Average accepted packet length = 1
Total in-flight flits = 805 (0 measured)
latency change    = 0.000597516
throughput change = 0.0102777
Warmed up ...Time used is 1500 cycles
1
Class 0:
Minimum packet latency = 5
Average packet latency = 10.5971
Maximum packet latency = 18
Minimum network latency = 5
Average network latency = 10.5971
Maximum network latency = 18
Slowest packet = 150981
Minimum flit latency = 5
Average flit latency = 10.6029
Maximum flit latency = 18
Slowest flit = 150981
Minimum fragmentation = 0
Average fragmentation = 0
Maximum fragmentation = 0
Minimum injected packet rate = 0.246 (at node 138)
Average injected packet rate = 0.300984
Maximum injected packet rate = 0.358 (at node 142)
Minimum accepted packet rate = 0.246 (at node 217)
Average accepted packet rate = 0.300883
Maximum accepted packet rate = 0.374 (at node 45)
Minimum injected flit rate = 0.246 (at node 138)
Average injected flit rate = 0.300984
Maximum injected flit rate = 0.358 (at node 142)
Minimum accepted flit rate = 0.246 (at node 217)
Average accepted flit rate = 0.300883
Maximum accepted flit rate = 0.374 (at node 45)
Average injected packet length = 1
Average accepted packet length = 1
Total in-flight flits = 818 (818 measured)
latency change    = 3.56029e-06
throughput change = 0.00714045
1
Class 0:
Minimum packet latency = 5
Average packet latency = 10.5974
Maximum packet latency = 18
Minimum network latency = 5
Average network latency = 10.5974
Maximum network latency = 18
Slowest packet = 150981
Minimum flit latency = 5
Average flit latency = 10.6003
Maximum flit latency = 18
Slowest flit = 150981
Minimum fragmentation = 0
Average fragmentation = 0
Maximum fragmentation = 0
Minimum injected packet rate = 0.266 (at node 138)
Average injected packet rate = 0.300621
Maximum injected packet rate = 0.334 (at node 30)
Minimum accepted packet rate = 0.257 (at node 207)
Average accepted packet rate = 0.300621
Maximum accepted packet rate = 0.348 (at node 214)
Minimum injected flit rate = 0.266 (at node 138)
Average injected flit rate = 0.300621
Maximum injected flit rate = 0.334 (at node 30)
Minimum accepted flit rate = 0.257 (at node 207)
Average accepted flit rate = 0.300621
Maximum accepted flit rate = 0.348 (at node 214)
Average injected packet length = 1
Average accepted packet length = 1
Total in-flight flits = 805 (805 measured)
latency change    = 2.7717e-05
throughput change = 0.000870593
1
Class 0:
Minimum packet latency = 5
Average packet latency = 10.6008
Maximum packet latency = 18
Minimum network latency = 5
Average network latency = 10.6008
Maximum network latency = 18
Slowest packet = 150981
Minimum flit latency = 5
Average flit latency = 10.6027
Maximum flit latency = 18
Slowest flit = 150981
Minimum fragmentation = 0
Average fragmentation = 0
Maximum fragmentation = 0
Minimum injected packet rate = 0.268 (at node 39)
Average injected packet rate = 0.300388
Maximum injected packet rate = 0.336 (at node 142)
Minimum accepted packet rate = 0.272 (at node 32)
Average accepted packet rate = 0.300234
Maximum accepted packet rate = 0.338667 (at node 14)
Minimum injected flit rate = 0.268 (at node 39)
Average injected flit rate = 0.300388
Maximum injected flit rate = 0.336 (at node 142)
Minimum accepted flit rate = 0.272 (at node 32)
Average accepted flit rate = 0.300234
Maximum accepted flit rate = 0.338667 (at node 14)
Average injected packet length = 1
Average accepted packet length = 1
Total in-flight flits = 864 (864 measured)
latency change    = 0.000327752
throughput change = 0.00128806
Draining all recorded packets ...
Draining remaining packets ...
Time taken is 3031 cycles
====== Traffic class 0 ======
Overall minimum packet latency = 5 (1 samples)
Overall average packet latency = 10.6024 (1 samples)
Overall maximum packet latency = 18 (1 samples)
Overall minimum network latency = 5 (1 samples)
Overall average network latency = 10.6024 (1 samples)
Overall maximum network latency = 18 (1 samples)
Overall minimum flit latency = 5 (1 samples)
Overall average flit latency = 10.6043 (1 samples)
Overall maximum flit latency = 18 (1 samples)
Overall minimum fragmentation = 0 (1 samples)
Overall average fragmentation = 0 (1 samples)
Overall maximum fragmentation = 0 (1 samples)
Overall minimum injected packet rate = 0.268 (1 samples)
Overall average injected packet rate = 0.300388 (1 samples)
Overall maximum injected packet rate = 0.336 (1 samples)
Overall minimum accepted packet rate = 0.272 (1 samples)
Overall average accepted packet rate = 0.300234 (1 samples)
Overall maximum accepted packet rate = 0.338667 (1 samples)
Overall minimum injected flit rate = 0.268 (1 samples)
Overall average injected flit rate = 0.300388 (1 samples)
Overall maximum injected flit rate = 0.336 (1 samples)
Overall minimum accepted flit rate = 0.272 (1 samples)
Overall average accepted flit rate = 0.300234 (1 samples)
Overall maximum accepted flit rate = 0.338667 (1 samples)
Overall average injected packet size = 1 (1 samples)
Overall average accepted packet size = 1 (1 samples)
Overall average hops = 2.74866 (1 samples)
Total run time 7.77212
