BEGIN Configuration File: ./FBF-3.conf
injection_rate = 0.2;
traffic = uniform;
routing_function = adaptive_xyyx;
vc_buf_size = 16;
topology = flatfly;
use_noc_latency = 0;
hold_switch_for_packet=0;

c = 4;
k = 8;
n = 2;

x  = 8;
y  = 8;
xr = 2;
yr = 2;

packet_size  = 1;
num_vcs      = 2;
vc_allocator = separable_input_first; 
sw_allocator = separable_input_first;

alloc_iters   = 1;
sample_period = 500;

wait_for_tail_credit = 0;
use_read_write       = 0;

credit_delay   = 2;
routing_delay  = 0;
vc_alloc_delay = 1;
sw_alloc_delay = 1;
st_final_delay = 1;

input_speedup     = 1;
output_speedup    = 1;
internal_speedup  = 2.0;

warmup_periods = 3;
sim_count      = 1;

priority = none;
injection_rate_uses_flits=1;

END Configuration File: ./FBF-3.conf
Number of nodes: 256
Number of routers: 64
 Flat Bufferfly 
 k = 8 n = 2 c = 4
 each switch - total radix =  18
 # of switches = 64
 # of channels = 896
 # of nodes ( size of network ) = 256
0
Class 0:
Minimum packet latency = 5
Average packet latency = 10.455
Maximum packet latency = 15
Minimum network latency = 5
Average network latency = 10.455
Maximum network latency = 15
Slowest packet = 3780
Minimum flit latency = 5
Average flit latency = 10.455
Maximum flit latency = 15
Slowest flit = 3780
Minimum fragmentation = 0
Average fragmentation = 0
Maximum fragmentation = 0
Minimum injected packet rate = 0.158 (at node 1)
Average injected packet rate = 0.198797
Maximum injected packet rate = 0.254 (at node 239)
Minimum accepted packet rate = 0.134 (at node 229)
Average accepted packet rate = 0.19482
Maximum accepted packet rate = 0.248 (at node 175)
Minimum injected flit rate = 0.158 (at node 1)
Average injected flit rate = 0.198797
Maximum injected flit rate = 0.254 (at node 239)
Minimum accepted flit rate = 0.134 (at node 229)
Average accepted flit rate = 0.19482
Maximum accepted flit rate = 0.248 (at node 175)
Average injected packet length = 1
Average accepted packet length = 1
Total in-flight flits = 509 (0 measured)
latency change    = 1
throughput change = 1
0
Class 0:
Minimum packet latency = 5
Average packet latency = 10.4589
Maximum packet latency = 16
Minimum network latency = 5
Average network latency = 10.4589
Maximum network latency = 16
Slowest packet = 27160
Minimum flit latency = 5
Average flit latency = 10.4589
Maximum flit latency = 16
Slowest flit = 27160
Minimum fragmentation = 0
Average fragmentation = 0
Maximum fragmentation = 0
Minimum injected packet rate = 0.17 (at node 104)
Average injected packet rate = 0.199156
Maximum injected packet rate = 0.232 (at node 22)
Minimum accepted packet rate = 0.152 (at node 229)
Average accepted packet rate = 0.196949
Maximum accepted packet rate = 0.235 (at node 175)
Minimum injected flit rate = 0.17 (at node 104)
Average injected flit rate = 0.199156
Maximum injected flit rate = 0.232 (at node 22)
Minimum accepted flit rate = 0.152 (at node 229)
Average accepted flit rate = 0.196949
Maximum accepted flit rate = 0.235 (at node 175)
Average injected packet length = 1
Average accepted packet length = 1
Total in-flight flits = 565 (0 measured)
latency change    = 0.000377435
throughput change = 0.0108094
0
Class 0:
Minimum packet latency = 5
Average packet latency = 10.4594
Maximum packet latency = 15
Minimum network latency = 5
Average network latency = 10.4594
Maximum network latency = 15
Slowest packet = 55192
Minimum flit latency = 5
Average flit latency = 10.4594
Maximum flit latency = 15
Slowest flit = 55192
Minimum fragmentation = 0
Average fragmentation = 0
Maximum fragmentation = 0
Minimum injected packet rate = 0.148 (at node 29)
Average injected packet rate = 0.199695
Maximum injected packet rate = 0.264 (at node 39)
Minimum accepted packet rate = 0.142 (at node 186)
Average accepted packet rate = 0.199883
Maximum accepted packet rate = 0.274 (at node 66)
Minimum injected flit rate = 0.148 (at node 29)
Average injected flit rate = 0.199695
Maximum injected flit rate = 0.264 (at node 39)
Minimum accepted flit rate = 0.142 (at node 186)
Average accepted flit rate = 0.199883
Maximum accepted flit rate = 0.274 (at node 66)
Average injected packet length = 1
Average accepted packet length = 1
Total in-flight flits = 541 (0 measured)
latency change    = 4.17418e-05
throughput change = 0.0146766
Warmed up ...Time used is 1500 cycles
1
Class 0:
Minimum packet latency = 5
Average packet latency = 10.4431
Maximum packet latency = 18
Minimum network latency = 5
Average network latency = 10.4431
Maximum network latency = 18
Slowest packet = 94049
Minimum flit latency = 5
Average flit latency = 10.4498
Maximum flit latency = 18
Slowest flit = 94049
Minimum fragmentation = 0
Average fragmentation = 0
Maximum fragmentation = 0
Minimum injected packet rate = 0.142 (at node 174)
Average injected packet rate = 0.1995
Maximum injected packet rate = 0.252 (at node 122)
Minimum accepted packet rate = 0.146 (at node 228)
Average accepted packet rate = 0.199516
Maximum accepted packet rate = 0.246 (at node 50)
Minimum injected flit rate = 0.142 (at node 174)
Average injected flit rate = 0.1995
Maximum injected flit rate = 0.252 (at node 122)
Minimum accepted flit rate = 0.146 (at node 228)
Average accepted flit rate = 0.199516
Maximum accepted flit rate = 0.246 (at node 50)
Average injected packet length = 1
Average accepted packet length = 1
Total in-flight flits = 539 (539 measured)
latency change    = 0.00156253
throughput change = 0.00184039
1
Class 0:
Minimum packet latency = 5
Average packet latency = 10.4606
Maximum packet latency = 18
Minimum network latency = 5
Average network latency = 10.4606
Maximum network latency = 18
Slowest packet = 94049
Minimum flit latency = 5
Average flit latency = 10.4638
Maximum flit latency = 18
Slowest flit = 94049
Minimum fragmentation = 0
Average fragmentation = 0
Maximum fragmentation = 0
Minimum injected packet rate = 0.165 (at node 191)
Average injected packet rate = 0.200563
Maximum injected packet rate = 0.24 (at node 53)
Minimum accepted packet rate = 0.169 (at node 30)
Average accepted packet rate = 0.200586
Maximum accepted packet rate = 0.243 (at node 245)
Minimum injected flit rate = 0.165 (at node 191)
Average injected flit rate = 0.200563
Maximum injected flit rate = 0.24 (at node 53)
Minimum accepted flit rate = 0.169 (at node 30)
Average accepted flit rate = 0.200586
Maximum accepted flit rate = 0.243 (at node 245)
Average injected packet length = 1
Average accepted packet length = 1
Total in-flight flits = 535 (535 measured)
latency change    = 0.00167437
throughput change = 0.00533593
1
Class 0:
Minimum packet latency = 5
Average packet latency = 10.4611
Maximum packet latency = 18
Minimum network latency = 5
Average network latency = 10.4611
Maximum network latency = 18
Slowest packet = 94049
Minimum flit latency = 5
Average flit latency = 10.4632
Maximum flit latency = 18
Slowest flit = 94049
Minimum fragmentation = 0
Average fragmentation = 0
Maximum fragmentation = 0
Minimum injected packet rate = 0.169333 (at node 174)
Average injected packet rate = 0.200125
Maximum injected packet rate = 0.230667 (at node 163)
Minimum accepted packet rate = 0.167333 (at node 48)
Average accepted packet rate = 0.200104
Maximum accepted packet rate = 0.242 (at node 245)
Minimum injected flit rate = 0.169333 (at node 174)
Average injected flit rate = 0.200125
Maximum injected flit rate = 0.230667 (at node 163)
Minimum accepted flit rate = 0.167333 (at node 48)
Average accepted flit rate = 0.200104
Maximum accepted flit rate = 0.242 (at node 245)
Average injected packet length = 1
Average accepted packet length = 1
Total in-flight flits = 549 (549 measured)
latency change    = 5.15195e-05
throughput change = 0.0024076
Draining all recorded packets ...
Draining remaining packets ...
Time taken is 3029 cycles
====== Traffic class 0 ======
Overall minimum packet latency = 5 (1 samples)
Overall average packet latency = 10.4628 (1 samples)
Overall maximum packet latency = 18 (1 samples)
Overall minimum network latency = 5 (1 samples)
Overall average network latency = 10.4628 (1 samples)
Overall maximum network latency = 18 (1 samples)
Overall minimum flit latency = 5 (1 samples)
Overall average flit latency = 10.4638 (1 samples)
Overall maximum flit latency = 18 (1 samples)
Overall minimum fragmentation = 0 (1 samples)
Overall average fragmentation = 0 (1 samples)
Overall maximum fragmentation = 0 (1 samples)
Overall minimum injected packet rate = 0.169333 (1 samples)
Overall average injected packet rate = 0.200125 (1 samples)
Overall maximum injected packet rate = 0.230667 (1 samples)
Overall minimum accepted packet rate = 0.167333 (1 samples)
Overall average accepted packet rate = 0.200104 (1 samples)
Overall maximum accepted packet rate = 0.242 (1 samples)
Overall minimum injected flit rate = 0.169333 (1 samples)
Overall average injected flit rate = 0.200125 (1 samples)
Overall maximum injected flit rate = 0.230667 (1 samples)
Overall minimum accepted flit rate = 0.167333 (1 samples)
Overall average accepted flit rate = 0.200104 (1 samples)
Overall maximum accepted flit rate = 0.242 (1 samples)
Overall average injected packet size = 1 (1 samples)
Overall average accepted packet size = 1 (1 samples)
Overall average hops = 2.74992 (1 samples)
Total run time 5.69332
