BEGIN Configuration File: ./FBF-3.conf
injection_rate = 0.8;
traffic = uniform;
routing_function = adaptive_xyyx;
vc_buf_size = 16;
topology = flatfly;
use_noc_latency = 0;
hold_switch_for_packet=0;

c = 4;
k = 8;
n = 2;

x  = 8;
y  = 8;
xr = 2;
yr = 2;

packet_size  = 1;
num_vcs      = 2;
vc_allocator = separable_input_first; 
sw_allocator = separable_input_first;

alloc_iters   = 1;
sample_period = 500;

wait_for_tail_credit = 0;
use_read_write       = 0;

credit_delay   = 2;
routing_delay  = 0;
vc_alloc_delay = 1;
sw_alloc_delay = 1;
st_final_delay = 1;

input_speedup     = 1;
output_speedup    = 1;
internal_speedup  = 2.0;

warmup_periods = 3;
sim_count      = 1;

priority = none;
injection_rate_uses_flits=1;

END Configuration File: ./FBF-3.conf
Number of nodes: 256
Number of routers: 64
 Flat Bufferfly 
 k = 8 n = 2 c = 4
 each switch - total radix =  18
 # of switches = 64
 # of channels = 896
 # of nodes ( size of network ) = 256
0
Class 0:
Minimum packet latency = 5
Average packet latency = 12.7898
Maximum packet latency = 40
Minimum network latency = 5
Average network latency = 12.7898
Maximum network latency = 40
Slowest packet = 79788
Minimum flit latency = 5
Average flit latency = 12.7898
Maximum flit latency = 40
Slowest flit = 79788
Minimum fragmentation = 0
Average fragmentation = 0
Maximum fragmentation = 0
Minimum injected packet rate = 0.738 (at node 2)
Average injected packet rate = 0.799844
Maximum injected packet rate = 0.848 (at node 45)
Minimum accepted packet rate = 0.69 (at node 40)
Average accepted packet rate = 0.77943
Maximum accepted packet rate = 0.878 (at node 248)
Minimum injected flit rate = 0.738 (at node 2)
Average injected flit rate = 0.799844
Maximum injected flit rate = 0.848 (at node 45)
Minimum accepted flit rate = 0.69 (at node 40)
Average accepted flit rate = 0.77943
Maximum accepted flit rate = 0.878 (at node 248)
Average injected packet length = 1
Average accepted packet length = 1
Total in-flight flits = 2613 (0 measured)
latency change    = 1
throughput change = 1
0
Class 0:
Minimum packet latency = 5
Average packet latency = 12.8241
Maximum packet latency = 40
Minimum network latency = 5
Average network latency = 12.8241
Maximum network latency = 40
Slowest packet = 79788
Minimum flit latency = 5
Average flit latency = 12.8241
Maximum flit latency = 40
Slowest flit = 79788
Minimum fragmentation = 0
Average fragmentation = 0
Maximum fragmentation = 0
Minimum injected packet rate = 0.761 (at node 2)
Average injected packet rate = 0.79868
Maximum injected packet rate = 0.832 (at node 10)
Minimum accepted packet rate = 0.711 (at node 30)
Average accepted packet rate = 0.788387
Maximum accepted packet rate = 0.87 (at node 133)
Minimum injected flit rate = 0.761 (at node 2)
Average injected flit rate = 0.79868
Maximum injected flit rate = 0.832 (at node 10)
Minimum accepted flit rate = 0.711 (at node 30)
Average accepted flit rate = 0.788387
Maximum accepted flit rate = 0.87 (at node 133)
Average injected packet length = 1
Average accepted packet length = 1
Total in-flight flits = 2635 (0 measured)
latency change    = 0.00267942
throughput change = 0.0113612
0
Class 0:
Minimum packet latency = 5
Average packet latency = 12.9012
Maximum packet latency = 33
Minimum network latency = 5
Average network latency = 12.9012
Maximum network latency = 33
Slowest packet = 215507
Minimum flit latency = 5
Average flit latency = 12.9012
Maximum flit latency = 33
Slowest flit = 215507
Minimum fragmentation = 0
Average fragmentation = 0
Maximum fragmentation = 0
Minimum injected packet rate = 0.74 (at node 171)
Average injected packet rate = 0.799492
Maximum injected packet rate = 0.842 (at node 31)
Minimum accepted packet rate = 0.662 (at node 21)
Average accepted packet rate = 0.799758
Maximum accepted packet rate = 0.91 (at node 9)
Minimum injected flit rate = 0.74 (at node 171)
Average injected flit rate = 0.799492
Maximum injected flit rate = 0.842 (at node 31)
Minimum accepted flit rate = 0.662 (at node 21)
Average accepted flit rate = 0.799758
Maximum accepted flit rate = 0.91 (at node 9)
Average injected packet length = 1
Average accepted packet length = 1
Total in-flight flits = 2601 (0 measured)
latency change    = 0.00597528
throughput change = 0.0142182
Warmed up ...Time used is 1500 cycles
1
Class 0:
Minimum packet latency = 5
Average packet latency = 12.7581
Maximum packet latency = 31
Minimum network latency = 5
Average network latency = 12.7581
Maximum network latency = 31
Slowest packet = 341922
Minimum flit latency = 5
Average flit latency = 12.7772
Maximum flit latency = 31
Slowest flit = 341922
Minimum fragmentation = 0
Average fragmentation = 0
Maximum fragmentation = 0
Minimum injected packet rate = 0.754 (at node 175)
Average injected packet rate = 0.799555
Maximum injected packet rate = 0.838 (at node 52)
Minimum accepted packet rate = 0.678 (at node 4)
Average accepted packet rate = 0.799234
Maximum accepted packet rate = 0.942 (at node 22)
Minimum injected flit rate = 0.754 (at node 175)
Average injected flit rate = 0.799555
Maximum injected flit rate = 0.838 (at node 52)
Minimum accepted flit rate = 0.678 (at node 4)
Average accepted flit rate = 0.799234
Maximum accepted flit rate = 0.942 (at node 22)
Average injected packet length = 1
Average accepted packet length = 1
Total in-flight flits = 2642 (2642 measured)
latency change    = 0.0112214
throughput change = 0.000654924
1
Class 0:
Minimum packet latency = 5
Average packet latency = 12.7979
Maximum packet latency = 37
Minimum network latency = 5
Average network latency = 12.7979
Maximum network latency = 37
Slowest packet = 454541
Minimum flit latency = 5
Average flit latency = 12.8069
Maximum flit latency = 37
Slowest flit = 454541
Minimum fragmentation = 0
Average fragmentation = 0
Maximum fragmentation = 0
Minimum injected packet rate = 0.767 (at node 181)
Average injected packet rate = 0.799309
Maximum injected packet rate = 0.831 (at node 52)
Minimum accepted packet rate = 0.726 (at node 18)
Average accepted packet rate = 0.799266
Maximum accepted packet rate = 0.878 (at node 174)
Minimum injected flit rate = 0.767 (at node 181)
Average injected flit rate = 0.799309
Maximum injected flit rate = 0.831 (at node 52)
Minimum accepted flit rate = 0.726 (at node 18)
Average accepted flit rate = 0.799266
Maximum accepted flit rate = 0.878 (at node 174)
Average injected packet length = 1
Average accepted packet length = 1
Total in-flight flits = 2612 (2612 measured)
latency change    = 0.00311034
throughput change = 3.90984e-05
1
Class 0:
Minimum packet latency = 5
Average packet latency = 12.8126
Maximum packet latency = 37
Minimum network latency = 5
Average network latency = 12.8126
Maximum network latency = 37
Slowest packet = 454541
Minimum flit latency = 5
Average flit latency = 12.8186
Maximum flit latency = 37
Slowest flit = 454541
Minimum fragmentation = 0
Average fragmentation = 0
Maximum fragmentation = 0
Minimum injected packet rate = 0.774667 (at node 1)
Average injected packet rate = 0.79912
Maximum injected packet rate = 0.826 (at node 60)
Minimum accepted packet rate = 0.744667 (at node 109)
Average accepted packet rate = 0.799042
Maximum accepted packet rate = 0.872667 (at node 198)
Minimum injected flit rate = 0.774667 (at node 1)
Average injected flit rate = 0.79912
Maximum injected flit rate = 0.826 (at node 60)
Minimum accepted flit rate = 0.744667 (at node 109)
Average accepted flit rate = 0.799042
Maximum accepted flit rate = 0.872667 (at node 198)
Average injected packet length = 1
Average accepted packet length = 1
Total in-flight flits = 2631 (2631 measured)
latency change    = 0.00115174
throughput change = 0.000280284
Draining all recorded packets ...
Draining remaining packets ...
Time taken is 3057 cycles
====== Traffic class 0 ======
Overall minimum packet latency = 5 (1 samples)
Overall average packet latency = 12.82 (1 samples)
Overall maximum packet latency = 37 (1 samples)
Overall minimum network latency = 5 (1 samples)
Overall average network latency = 12.82 (1 samples)
Overall maximum network latency = 37 (1 samples)
Overall minimum flit latency = 5 (1 samples)
Overall average flit latency = 12.8244 (1 samples)
Overall maximum flit latency = 37 (1 samples)
Overall minimum fragmentation = 0 (1 samples)
Overall average fragmentation = 0 (1 samples)
Overall maximum fragmentation = 0 (1 samples)
Overall minimum injected packet rate = 0.774667 (1 samples)
Overall average injected packet rate = 0.79912 (1 samples)
Overall maximum injected packet rate = 0.826 (1 samples)
Overall minimum accepted packet rate = 0.744667 (1 samples)
Overall average accepted packet rate = 0.799042 (1 samples)
Overall maximum accepted packet rate = 0.872667 (1 samples)
Overall minimum injected flit rate = 0.774667 (1 samples)
Overall average injected flit rate = 0.79912 (1 samples)
Overall maximum injected flit rate = 0.826 (1 samples)
Overall minimum accepted flit rate = 0.744667 (1 samples)
Overall average accepted flit rate = 0.799042 (1 samples)
Overall maximum accepted flit rate = 0.872667 (1 samples)
Overall average injected packet size = 1 (1 samples)
Overall average accepted packet size = 1 (1 samples)
Overall average hops = 2.74879 (1 samples)
Total run time 19.097
