BEGIN Configuration File: ./FBF-3.conf
injection_rate = 0.3;
traffic = uniform;
routing_function = ran_min;
vc_buf_size = 16;
topology = flatfly;
use_noc_latency = 0;
hold_switch_for_packet=0;

c = 4;
k = 8;
n = 2;

x  = 8;
y  = 8;
xr = 2;
yr = 2;

packet_size  = 1;
num_vcs      = 2;
vc_allocator = separable_input_first; 
sw_allocator = separable_input_first;

alloc_iters   = 1;
sample_period = 500;

wait_for_tail_credit = 0;
use_read_write       = 0;

credit_delay   = 2;
routing_delay  = 0;
vc_alloc_delay = 1;
sw_alloc_delay = 1;
st_final_delay = 1;

input_speedup     = 1;
output_speedup    = 1;
internal_speedup  = 2.0;

warmup_periods = 3;
sim_count      = 1;

priority = none;
injection_rate_uses_flits=1;

END Configuration File: ./FBF-3.conf
Number of nodes: 256
Number of routers: 64
 Flat Bufferfly 
 k = 8 n = 2 c = 4
 each switch - total radix =  18
 # of switches = 64
 # of channels = 896
 # of nodes ( size of network ) = 256
0
Class 0:
Minimum packet latency = 5
Average packet latency = 10.543
Maximum packet latency = 17
Minimum network latency = 5
Average network latency = 10.543
Maximum network latency = 17
Slowest packet = 35046
Minimum flit latency = 5
Average flit latency = 10.543
Maximum flit latency = 17
Slowest flit = 35046
Minimum fragmentation = 0
Average fragmentation = 0
Maximum fragmentation = 0
Minimum injected packet rate = 0.238 (at node 172)
Average injected packet rate = 0.299031
Maximum injected packet rate = 0.348 (at node 22)
Minimum accepted packet rate = 0.224 (at node 15)
Average accepted packet rate = 0.293031
Maximum accepted packet rate = 0.38 (at node 248)
Minimum injected flit rate = 0.238 (at node 172)
Average injected flit rate = 0.299031
Maximum injected flit rate = 0.348 (at node 22)
Minimum accepted flit rate = 0.224 (at node 15)
Average accepted flit rate = 0.293031
Maximum accepted flit rate = 0.38 (at node 248)
Average injected packet length = 1
Average accepted packet length = 1
Total in-flight flits = 768 (0 measured)
latency change    = 1
throughput change = 1
0
Class 0:
Minimum packet latency = 5
Average packet latency = 10.5595
Maximum packet latency = 17
Minimum network latency = 5
Average network latency = 10.5595
Maximum network latency = 17
Slowest packet = 35046
Minimum flit latency = 5
Average flit latency = 10.5595
Maximum flit latency = 17
Slowest flit = 35046
Minimum fragmentation = 0
Average fragmentation = 0
Maximum fragmentation = 0
Minimum injected packet rate = 0.262 (at node 203)
Average injected packet rate = 0.299043
Maximum injected packet rate = 0.337 (at node 223)
Minimum accepted packet rate = 0.254 (at node 108)
Average accepted packet rate = 0.295656
Maximum accepted packet rate = 0.347 (at node 72)
Minimum injected flit rate = 0.262 (at node 203)
Average injected flit rate = 0.299043
Maximum injected flit rate = 0.337 (at node 223)
Minimum accepted flit rate = 0.254 (at node 108)
Average accepted flit rate = 0.295656
Maximum accepted flit rate = 0.347 (at node 72)
Average injected packet length = 1
Average accepted packet length = 1
Total in-flight flits = 867 (0 measured)
latency change    = 0.00156544
throughput change = 0.00887855
0
Class 0:
Minimum packet latency = 5
Average packet latency = 10.5726
Maximum packet latency = 17
Minimum network latency = 5
Average network latency = 10.5726
Maximum network latency = 17
Slowest packet = 75378
Minimum flit latency = 5
Average flit latency = 10.5726
Maximum flit latency = 17
Slowest flit = 75378
Minimum fragmentation = 0
Average fragmentation = 0
Maximum fragmentation = 0
Minimum injected packet rate = 0.238 (at node 29)
Average injected packet rate = 0.298266
Maximum injected packet rate = 0.358 (at node 23)
Minimum accepted packet rate = 0.226 (at node 216)
Average accepted packet rate = 0.298898
Maximum accepted packet rate = 0.392 (at node 55)
Minimum injected flit rate = 0.238 (at node 29)
Average injected flit rate = 0.298266
Maximum injected flit rate = 0.358 (at node 23)
Minimum accepted flit rate = 0.226 (at node 216)
Average accepted flit rate = 0.298898
Maximum accepted flit rate = 0.392 (at node 55)
Average injected packet length = 1
Average accepted packet length = 1
Total in-flight flits = 786 (0 measured)
latency change    = 0.00123812
throughput change = 0.0108471
Warmed up ...Time used is 1500 cycles
1
Class 0:
Minimum packet latency = 5
Average packet latency = 10.5588
Maximum packet latency = 16
Minimum network latency = 5
Average network latency = 10.5588
Maximum network latency = 16
Slowest packet = 129314
Minimum flit latency = 5
Average flit latency = 10.5637
Maximum flit latency = 16
Slowest flit = 129314
Minimum fragmentation = 0
Average fragmentation = 0
Maximum fragmentation = 0
Minimum injected packet rate = 0.246 (at node 138)
Average injected packet rate = 0.300984
Maximum injected packet rate = 0.358 (at node 142)
Minimum accepted packet rate = 0.228 (at node 252)
Average accepted packet rate = 0.300727
Maximum accepted packet rate = 0.372 (at node 8)
Minimum injected flit rate = 0.246 (at node 138)
Average injected flit rate = 0.300984
Maximum injected flit rate = 0.358 (at node 142)
Minimum accepted flit rate = 0.228 (at node 252)
Average accepted flit rate = 0.300727
Maximum accepted flit rate = 0.372 (at node 8)
Average injected packet length = 1
Average accepted packet length = 1
Total in-flight flits = 819 (819 measured)
latency change    = 0.00130089
throughput change = 0.00607903
1
Class 0:
Minimum packet latency = 5
Average packet latency = 10.5641
Maximum packet latency = 17
Minimum network latency = 5
Average network latency = 10.5641
Maximum network latency = 17
Slowest packet = 160369
Minimum flit latency = 5
Average flit latency = 10.5665
Maximum flit latency = 17
Slowest flit = 160369
Minimum fragmentation = 0
Average fragmentation = 0
Maximum fragmentation = 0
Minimum injected packet rate = 0.266 (at node 138)
Average injected packet rate = 0.300621
Maximum injected packet rate = 0.334 (at node 30)
Minimum accepted packet rate = 0.26 (at node 38)
Average accepted packet rate = 0.300582
Maximum accepted packet rate = 0.367 (at node 181)
Minimum injected flit rate = 0.266 (at node 138)
Average injected flit rate = 0.300621
Maximum injected flit rate = 0.334 (at node 30)
Minimum accepted flit rate = 0.26 (at node 38)
Average accepted flit rate = 0.300582
Maximum accepted flit rate = 0.367 (at node 181)
Average injected packet length = 1
Average accepted packet length = 1
Total in-flight flits = 796 (796 measured)
latency change    = 0.000495199
throughput change = 0.000480838
1
Class 0:
Minimum packet latency = 5
Average packet latency = 10.5678
Maximum packet latency = 17
Minimum network latency = 5
Average network latency = 10.5678
Maximum network latency = 17
Slowest packet = 160369
Minimum flit latency = 5
Average flit latency = 10.5694
Maximum flit latency = 17
Slowest flit = 160369
Minimum fragmentation = 0
Average fragmentation = 0
Maximum fragmentation = 0
Minimum injected packet rate = 0.268 (at node 39)
Average injected packet rate = 0.300388
Maximum injected packet rate = 0.336 (at node 142)
Minimum accepted packet rate = 0.266 (at node 195)
Average accepted packet rate = 0.300195
Maximum accepted packet rate = 0.344667 (at node 181)
Minimum injected flit rate = 0.268 (at node 39)
Average injected flit rate = 0.300388
Maximum injected flit rate = 0.336 (at node 142)
Minimum accepted flit rate = 0.266 (at node 195)
Average accepted flit rate = 0.300195
Maximum accepted flit rate = 0.344667 (at node 181)
Average injected packet length = 1
Average accepted packet length = 1
Total in-flight flits = 860 (860 measured)
latency change    = 0.000355059
throughput change = 0.00128822
Draining all recorded packets ...
Draining remaining packets ...
Time taken is 3031 cycles
====== Traffic class 0 ======
Overall minimum packet latency = 5 (1 samples)
Overall average packet latency = 10.5695 (1 samples)
Overall maximum packet latency = 17 (1 samples)
Overall minimum network latency = 5 (1 samples)
Overall average network latency = 10.5695 (1 samples)
Overall maximum network latency = 17 (1 samples)
Overall minimum flit latency = 5 (1 samples)
Overall average flit latency = 10.5715 (1 samples)
Overall maximum flit latency = 17 (1 samples)
Overall minimum fragmentation = 0 (1 samples)
Overall average fragmentation = 0 (1 samples)
Overall maximum fragmentation = 0 (1 samples)
Overall minimum injected packet rate = 0.268 (1 samples)
Overall average injected packet rate = 0.300388 (1 samples)
Overall maximum injected packet rate = 0.336 (1 samples)
Overall minimum accepted packet rate = 0.266 (1 samples)
Overall average accepted packet rate = 0.300195 (1 samples)
Overall maximum accepted packet rate = 0.344667 (1 samples)
Overall minimum injected flit rate = 0.268 (1 samples)
Overall average injected flit rate = 0.300388 (1 samples)
Overall maximum injected flit rate = 0.336 (1 samples)
Overall minimum accepted flit rate = 0.266 (1 samples)
Overall average accepted flit rate = 0.300195 (1 samples)
Overall maximum accepted flit rate = 0.344667 (1 samples)
Overall average injected packet size = 1 (1 samples)
Overall average accepted packet size = 1 (1 samples)
Overall average hops = 2.74871 (1 samples)
Total run time 8.1288
