BEGIN Configuration File: ./FBF-3.conf
injection_rate = 0.3;
traffic = uniform;
routing_function = ugal;
vc_buf_size = 16;
topology = flatfly;
use_noc_latency = 0;
hold_switch_for_packet=0;

c = 4;
k = 8;
n = 2;

x  = 8;
y  = 8;
xr = 2;
yr = 2;

packet_size  = 1;
num_vcs      = 2;
vc_allocator = separable_input_first; 
sw_allocator = separable_input_first;

alloc_iters   = 1;
sample_period = 500;

wait_for_tail_credit = 0;
use_read_write       = 0;

credit_delay   = 2;
routing_delay  = 0;
vc_alloc_delay = 1;
sw_alloc_delay = 1;
st_final_delay = 1;

input_speedup     = 1;
output_speedup    = 1;
internal_speedup  = 2.0;

warmup_periods = 3;
sim_count      = 1;

priority = none;
injection_rate_uses_flits=1;

END Configuration File: ./FBF-3.conf
Number of nodes: 256
Number of routers: 64
 Flat Bufferfly 
 k = 8 n = 2 c = 4
 each switch - total radix =  18
 # of switches = 64
 # of channels = 896
 # of nodes ( size of network ) = 256
0
Class 0:
Minimum packet latency = 5
Average packet latency = 10.9994
Maximum packet latency = 26
Minimum network latency = 5
Average network latency = 10.9994
Maximum network latency = 26
Slowest packet = 10973
Minimum flit latency = 5
Average flit latency = 10.9994
Maximum flit latency = 26
Slowest flit = 10973
Minimum fragmentation = 0
Average fragmentation = 0
Maximum fragmentation = 0
Minimum injected packet rate = 0.238 (at node 172)
Average injected packet rate = 0.299031
Maximum injected packet rate = 0.348 (at node 22)
Minimum accepted packet rate = 0.21 (at node 125)
Average accepted packet rate = 0.29257
Maximum accepted packet rate = 0.378 (at node 141)
Minimum injected flit rate = 0.238 (at node 172)
Average injected flit rate = 0.299031
Maximum injected flit rate = 0.348 (at node 22)
Minimum accepted flit rate = 0.21 (at node 125)
Average accepted flit rate = 0.29257
Maximum accepted flit rate = 0.378 (at node 141)
Average injected packet length = 1
Average accepted packet length = 1
Total in-flight flits = 827 (0 measured)
latency change    = 1
throughput change = 1
0
Class 0:
Minimum packet latency = 5
Average packet latency = 10.989
Maximum packet latency = 26
Minimum network latency = 5
Average network latency = 10.989
Maximum network latency = 26
Slowest packet = 10973
Minimum flit latency = 5
Average flit latency = 10.989
Maximum flit latency = 26
Slowest flit = 10973
Minimum fragmentation = 0
Average fragmentation = 0
Maximum fragmentation = 0
Minimum injected packet rate = 0.262 (at node 203)
Average injected packet rate = 0.299043
Maximum injected packet rate = 0.337 (at node 223)
Minimum accepted packet rate = 0.255 (at node 38)
Average accepted packet rate = 0.2955
Maximum accepted packet rate = 0.341 (at node 141)
Minimum injected flit rate = 0.262 (at node 203)
Average injected flit rate = 0.299043
Maximum injected flit rate = 0.337 (at node 223)
Minimum accepted flit rate = 0.255 (at node 38)
Average accepted flit rate = 0.2955
Maximum accepted flit rate = 0.341 (at node 141)
Average injected packet length = 1
Average accepted packet length = 1
Total in-flight flits = 907 (0 measured)
latency change    = 0.000938915
throughput change = 0.00991434
0
Class 0:
Minimum packet latency = 5
Average packet latency = 11.0147
Maximum packet latency = 24
Minimum network latency = 5
Average network latency = 11.0147
Maximum network latency = 24
Slowest packet = 77843
Minimum flit latency = 5
Average flit latency = 11.0147
Maximum flit latency = 24
Slowest flit = 77843
Minimum fragmentation = 0
Average fragmentation = 0
Maximum fragmentation = 0
Minimum injected packet rate = 0.238 (at node 29)
Average injected packet rate = 0.298266
Maximum injected packet rate = 0.358 (at node 23)
Minimum accepted packet rate = 0.236 (at node 254)
Average accepted packet rate = 0.298984
Maximum accepted packet rate = 0.386 (at node 180)
Minimum injected flit rate = 0.238 (at node 29)
Average injected flit rate = 0.298266
Maximum injected flit rate = 0.358 (at node 23)
Minimum accepted flit rate = 0.236 (at node 254)
Average accepted flit rate = 0.298984
Maximum accepted flit rate = 0.386 (at node 180)
Average injected packet length = 1
Average accepted packet length = 1
Total in-flight flits = 815 (0 measured)
latency change    = 0.00232814
throughput change = 0.011654
Warmed up ...Time used is 1500 cycles
1
Class 0:
Minimum packet latency = 5
Average packet latency = 10.9988
Maximum packet latency = 22
Minimum network latency = 5
Average network latency = 10.9988
Maximum network latency = 22
Slowest packet = 117147
Minimum flit latency = 5
Average flit latency = 11.0081
Maximum flit latency = 22
Slowest flit = 117147
Minimum fragmentation = 0
Average fragmentation = 0
Maximum fragmentation = 0
Minimum injected packet rate = 0.246 (at node 138)
Average injected packet rate = 0.300984
Maximum injected packet rate = 0.358 (at node 142)
Minimum accepted packet rate = 0.242 (at node 17)
Average accepted packet rate = 0.300617
Maximum accepted packet rate = 0.356 (at node 219)
Minimum injected flit rate = 0.246 (at node 138)
Average injected flit rate = 0.300984
Maximum injected flit rate = 0.358 (at node 142)
Minimum accepted flit rate = 0.242 (at node 17)
Average accepted flit rate = 0.300617
Maximum accepted flit rate = 0.356 (at node 219)
Average injected packet length = 1
Average accepted packet length = 1
Total in-flight flits = 862 (862 measured)
latency change    = 0.00144378
throughput change = 0.00543153
1
Class 0:
Minimum packet latency = 5
Average packet latency = 11.0025
Maximum packet latency = 22
Minimum network latency = 5
Average network latency = 11.0025
Maximum network latency = 22
Slowest packet = 117147
Minimum flit latency = 5
Average flit latency = 11.0071
Maximum flit latency = 22
Slowest flit = 117147
Minimum fragmentation = 0
Average fragmentation = 0
Maximum fragmentation = 0
Minimum injected packet rate = 0.266 (at node 138)
Average injected packet rate = 0.300621
Maximum injected packet rate = 0.334 (at node 30)
Minimum accepted packet rate = 0.261 (at node 17)
Average accepted packet rate = 0.30048
Maximum accepted packet rate = 0.334 (at node 24)
Minimum injected flit rate = 0.266 (at node 138)
Average injected flit rate = 0.300621
Maximum injected flit rate = 0.334 (at node 30)
Minimum accepted flit rate = 0.261 (at node 17)
Average accepted flit rate = 0.30048
Maximum accepted flit rate = 0.334 (at node 24)
Average injected packet length = 1
Average accepted packet length = 1
Total in-flight flits = 851 (851 measured)
latency change    = 0.000333102
throughput change = 0.000455
1
Class 0:
Minimum packet latency = 5
Average packet latency = 10.9981
Maximum packet latency = 22
Minimum network latency = 5
Average network latency = 10.9981
Maximum network latency = 22
Slowest packet = 117147
Minimum flit latency = 5
Average flit latency = 11.0012
Maximum flit latency = 22
Slowest flit = 117147
Minimum fragmentation = 0
Average fragmentation = 0
Maximum fragmentation = 0
Minimum injected packet rate = 0.268 (at node 39)
Average injected packet rate = 0.300388
Maximum injected packet rate = 0.336 (at node 142)
Minimum accepted packet rate = 0.268 (at node 119)
Average accepted packet rate = 0.300219
Maximum accepted packet rate = 0.332667 (at node 157)
Minimum injected flit rate = 0.268 (at node 39)
Average injected flit rate = 0.300388
Maximum injected flit rate = 0.336 (at node 142)
Minimum accepted flit rate = 0.268 (at node 119)
Average accepted flit rate = 0.300219
Maximum accepted flit rate = 0.332667 (at node 157)
Average injected packet length = 1
Average accepted packet length = 1
Total in-flight flits = 880 (880 measured)
latency change    = 0.000401735
throughput change = 0.00087176
Draining all recorded packets ...
Draining remaining packets ...
Time taken is 3039 cycles
====== Traffic class 0 ======
Overall minimum packet latency = 5 (1 samples)
Overall average packet latency = 11.0018 (1 samples)
Overall maximum packet latency = 22 (1 samples)
Overall minimum network latency = 5 (1 samples)
Overall average network latency = 11.0018 (1 samples)
Overall maximum network latency = 22 (1 samples)
Overall minimum flit latency = 5 (1 samples)
Overall average flit latency = 11.0048 (1 samples)
Overall maximum flit latency = 22 (1 samples)
Overall minimum fragmentation = 0 (1 samples)
Overall average fragmentation = 0 (1 samples)
Overall maximum fragmentation = 0 (1 samples)
Overall minimum injected packet rate = 0.268 (1 samples)
Overall average injected packet rate = 0.300388 (1 samples)
Overall maximum injected packet rate = 0.336 (1 samples)
Overall minimum accepted packet rate = 0.268 (1 samples)
Overall average accepted packet rate = 0.300219 (1 samples)
Overall maximum accepted packet rate = 0.332667 (1 samples)
Overall minimum injected flit rate = 0.268 (1 samples)
Overall average injected flit rate = 0.300388 (1 samples)
Overall maximum injected flit rate = 0.336 (1 samples)
Overall minimum accepted flit rate = 0.268 (1 samples)
Overall average accepted flit rate = 0.300219 (1 samples)
Overall maximum accepted flit rate = 0.332667 (1 samples)
Overall average injected packet size = 1 (1 samples)
Overall average accepted packet size = 1 (1 samples)
Overall average hops = 2.87722 (1 samples)
Total run time 8.52843
