BEGIN Configuration File: ./FBF-3.conf
injection_rate = 0.01;
traffic = uniform;
routing_function = ugal;
vc_buf_size = 16;
topology = flatfly;
use_noc_latency = 0;
hold_switch_for_packet=0;

c = 4;
k = 8;
n = 2;

x  = 8;
y  = 8;
xr = 2;
yr = 2;

packet_size  = 1;
num_vcs      = 2;
vc_allocator = separable_input_first; 
sw_allocator = separable_input_first;

alloc_iters   = 1;
sample_period = 500;

wait_for_tail_credit = 0;
use_read_write       = 0;

credit_delay   = 2;
routing_delay  = 0;
vc_alloc_delay = 1;
sw_alloc_delay = 1;
st_final_delay = 1;

input_speedup     = 1;
output_speedup    = 1;
internal_speedup  = 2.0;

warmup_periods = 3;
sim_count      = 1;

priority = none;
injection_rate_uses_flits=1;

END Configuration File: ./FBF-3.conf
Number of nodes: 256
Number of routers: 64
 Flat Bufferfly 
 k = 8 n = 2 c = 4
 each switch - total radix =  18
 # of switches = 64
 # of channels = 896
 # of nodes ( size of network ) = 256
0
Class 0:
Minimum packet latency = 5
Average packet latency = 10.2196
Maximum packet latency = 12
Minimum network latency = 5
Average network latency = 10.2196
Maximum network latency = 12
Slowest packet = 920
Minimum flit latency = 5
Average flit latency = 10.2196
Maximum flit latency = 12
Slowest flit = 920
Minimum fragmentation = 0
Average fragmentation = 0
Maximum fragmentation = 0
Minimum injected packet rate = 0 (at node 166)
Average injected packet rate = 0.00977344
Maximum injected packet rate = 0.024 (at node 35)
Minimum accepted packet rate = 0 (at node 26)
Average accepted packet rate = 0.00957031
Maximum accepted packet rate = 0.022 (at node 212)
Minimum injected flit rate = 0 (at node 166)
Average injected flit rate = 0.00977344
Maximum injected flit rate = 0.024 (at node 35)
Minimum accepted flit rate = 0 (at node 26)
Average accepted flit rate = 0.00957031
Maximum accepted flit rate = 0.022 (at node 212)
Average injected packet length = 1
Average accepted packet length = 1
Total in-flight flits = 26 (0 measured)
latency change    = 1
throughput change = 1
0
Class 0:
Minimum packet latency = 5
Average packet latency = 10.2485
Maximum packet latency = 18
Minimum network latency = 5
Average network latency = 10.2485
Maximum network latency = 18
Slowest packet = 1546
Minimum flit latency = 5
Average flit latency = 10.2485
Maximum flit latency = 18
Slowest flit = 1546
Minimum fragmentation = 0
Average fragmentation = 0
Maximum fragmentation = 0
Minimum injected packet rate = 0.003 (at node 30)
Average injected packet rate = 0.00998047
Maximum injected packet rate = 0.022 (at node 170)
Minimum accepted packet rate = 0.003 (at node 26)
Average accepted packet rate = 0.00987109
Maximum accepted packet rate = 0.02 (at node 218)
Minimum injected flit rate = 0.003 (at node 30)
Average injected flit rate = 0.00998047
Maximum injected flit rate = 0.022 (at node 170)
Minimum accepted flit rate = 0.003 (at node 26)
Average accepted flit rate = 0.00987109
Maximum accepted flit rate = 0.02 (at node 218)
Average injected packet length = 1
Average accepted packet length = 1
Total in-flight flits = 28 (0 measured)
latency change    = 0.00282228
throughput change = 0.0304709
0
Class 0:
Minimum packet latency = 5
Average packet latency = 10.234
Maximum packet latency = 14
Minimum network latency = 5
Average network latency = 10.234
Maximum network latency = 14
Slowest packet = 3679
Minimum flit latency = 5
Average flit latency = 10.234
Maximum flit latency = 14
Slowest flit = 3679
Minimum fragmentation = 0
Average fragmentation = 0
Maximum fragmentation = 0
Minimum injected packet rate = 0 (at node 94)
Average injected packet rate = 0.00953906
Maximum injected packet rate = 0.02 (at node 10)
Minimum accepted packet rate = 0 (at node 18)
Average accepted packet rate = 0.00954687
Maximum accepted packet rate = 0.024 (at node 37)
Minimum injected flit rate = 0 (at node 94)
Average injected flit rate = 0.00953906
Maximum injected flit rate = 0.02 (at node 10)
Minimum accepted flit rate = 0 (at node 18)
Average accepted flit rate = 0.00954687
Maximum accepted flit rate = 0.024 (at node 37)
Average injected packet length = 1
Average accepted packet length = 1
Total in-flight flits = 27 (0 measured)
latency change    = 0.00141425
throughput change = 0.0339607
Warmed up ...Time used is 1500 cycles
1
Class 0:
Minimum packet latency = 5
Average packet latency = 10.247
Maximum packet latency = 12
Minimum network latency = 5
Average network latency = 10.247
Maximum network latency = 12
Slowest packet = 3875
Minimum flit latency = 5
Average flit latency = 10.2488
Maximum flit latency = 12
Slowest flit = 3875
Minimum fragmentation = 0
Average fragmentation = 0
Maximum fragmentation = 0
Minimum injected packet rate = 0 (at node 12)
Average injected packet rate = 0.0101563
Maximum injected packet rate = 0.024 (at node 9)
Minimum accepted packet rate = 0.002 (at node 30)
Average accepted packet rate = 0.0101094
Maximum accepted packet rate = 0.024 (at node 78)
Minimum injected flit rate = 0 (at node 12)
Average injected flit rate = 0.0101563
Maximum injected flit rate = 0.024 (at node 9)
Minimum accepted flit rate = 0.002 (at node 30)
Average accepted flit rate = 0.0101094
Maximum accepted flit rate = 0.024 (at node 78)
Average injected packet length = 1
Average accepted packet length = 1
Total in-flight flits = 33 (33 measured)
latency change    = 0.00126843
throughput change = 0.0556414
1
Class 0:
Minimum packet latency = 5
Average packet latency = 10.244
Maximum packet latency = 12
Minimum network latency = 5
Average network latency = 10.244
Maximum network latency = 12
Slowest packet = 3875
Minimum flit latency = 5
Average flit latency = 10.245
Maximum flit latency = 12
Slowest flit = 3875
Minimum fragmentation = 0
Average fragmentation = 0
Maximum fragmentation = 0
Minimum injected packet rate = 0.003 (at node 6)
Average injected packet rate = 0.00992578
Maximum injected packet rate = 0.02 (at node 136)
Minimum accepted packet rate = 0.003 (at node 30)
Average accepted packet rate = 0.00991797
Maximum accepted packet rate = 0.022 (at node 6)
Minimum injected flit rate = 0.003 (at node 6)
Average injected flit rate = 0.00992578
Maximum injected flit rate = 0.02 (at node 136)
Minimum accepted flit rate = 0.003 (at node 30)
Average accepted flit rate = 0.00991797
Maximum accepted flit rate = 0.022 (at node 6)
Average injected packet length = 1
Average accepted packet length = 1
Total in-flight flits = 29 (29 measured)
latency change    = 0.000293985
throughput change = 0.0192989
1
Class 0:
Minimum packet latency = 5
Average packet latency = 10.253
Maximum packet latency = 12
Minimum network latency = 5
Average network latency = 10.253
Maximum network latency = 12
Slowest packet = 3875
Minimum flit latency = 5
Average flit latency = 10.2536
Maximum flit latency = 12
Slowest flit = 3875
Minimum fragmentation = 0
Average fragmentation = 0
Maximum fragmentation = 0
Minimum injected packet rate = 0.004 (at node 27)
Average injected packet rate = 0.0100938
Maximum injected packet rate = 0.018 (at node 136)
Minimum accepted packet rate = 0.004 (at node 30)
Average accepted packet rate = 0.0100859
Maximum accepted packet rate = 0.0186667 (at node 197)
Minimum injected flit rate = 0.004 (at node 27)
Average injected flit rate = 0.0100938
Maximum injected flit rate = 0.018 (at node 136)
Minimum accepted flit rate = 0.004 (at node 30)
Average accepted flit rate = 0.0100859
Maximum accepted flit rate = 0.0186667 (at node 197)
Average injected packet length = 1
Average accepted packet length = 1
Total in-flight flits = 30 (30 measured)
latency change    = 0.000874034
throughput change = 0.0166538
1
Class 0:
Minimum packet latency = 5
Average packet latency = 10.2813
Maximum packet latency = 17
Minimum network latency = 5
Average network latency = 10.2813
Maximum network latency = 17
Slowest packet = 8862
Minimum flit latency = 5
Average flit latency = 10.2815
Maximum flit latency = 17
Slowest flit = 8862
Minimum fragmentation = 0
Average fragmentation = 0
Maximum fragmentation = 0
Minimum injected packet rate = 0.0045 (at node 144)
Average injected packet rate = 0.0100254
Maximum injected packet rate = 0.016 (at node 136)
Minimum accepted packet rate = 0.005 (at node 170)
Average accepted packet rate = 0.0100313
Maximum accepted packet rate = 0.017 (at node 203)
Minimum injected flit rate = 0.0045 (at node 144)
Average injected flit rate = 0.0100254
Maximum injected flit rate = 0.016 (at node 136)
Minimum accepted flit rate = 0.005 (at node 170)
Average accepted flit rate = 0.0100313
Maximum accepted flit rate = 0.017 (at node 203)
Average injected packet length = 1
Average accepted packet length = 1
Total in-flight flits = 24 (24 measured)
latency change    = 0.00275046
throughput change = 0.00545171
Draining all recorded packets ...
Draining remaining packets ...
Time taken is 3525 cycles
====== Traffic class 0 ======
Overall minimum packet latency = 5 (1 samples)
Overall average packet latency = 10.2805 (1 samples)
Overall maximum packet latency = 17 (1 samples)
Overall minimum network latency = 5 (1 samples)
Overall average network latency = 10.2805 (1 samples)
Overall maximum network latency = 17 (1 samples)
Overall minimum flit latency = 5 (1 samples)
Overall average flit latency = 10.2815 (1 samples)
Overall maximum flit latency = 17 (1 samples)
Overall minimum fragmentation = 0 (1 samples)
Overall average fragmentation = 0 (1 samples)
Overall maximum fragmentation = 0 (1 samples)
Overall minimum injected packet rate = 0.0045 (1 samples)
Overall average injected packet rate = 0.0100254 (1 samples)
Overall maximum injected packet rate = 0.016 (1 samples)
Overall minimum accepted packet rate = 0.005 (1 samples)
Overall average accepted packet rate = 0.0100313 (1 samples)
Overall maximum accepted packet rate = 0.017 (1 samples)
Overall minimum injected flit rate = 0.0045 (1 samples)
Overall average injected flit rate = 0.0100254 (1 samples)
Overall maximum injected flit rate = 0.016 (1 samples)
Overall minimum accepted flit rate = 0.005 (1 samples)
Overall average accepted flit rate = 0.0100313 (1 samples)
Overall maximum accepted flit rate = 0.017 (1 samples)
Overall average injected packet size = 1 (1 samples)
Overall average accepted packet size = 1 (1 samples)
Overall average hops = 2.75726 (1 samples)
Total run time 1.68471
