BEGIN Configuration File: ./FT3
injection_rate = 0.2;
traffic = bitrev;
use_size_power_of_two = yes;
routing_function = anca;
vc_buf_size = 16;
topology = fattree;
use_noc_latency = 0;
hold_switch_for_packet=0;

k = 22;
n = 3;

packet_size  = 1;
num_vcs      = 2;
vc_allocator = separable_input_first; 
sw_allocator = separable_input_first;

alloc_iters   = 1;
sample_period = 500;

wait_for_tail_credit = 0;
use_read_write       = 0;

credit_delay   = 2;
routing_delay  = 0;
vc_alloc_delay = 1;
sw_alloc_delay = 1;
st_final_delay = 1;

input_speedup     = 1;
output_speedup    = 1;
internal_speedup  = 2.0;

warmup_periods = 3;
sim_count      = 1;

priority = none;
injection_rate_uses_flits=1;

END Configuration File: ./FT3
Number of nodes: 10648
Number of routers: 1452
Fat Tree
 k = 22 levels = 3
 each switch - total radix =  44
 # of switches = 1452
 # of channels = 42592
 # of nodes ( size of network ) = 10648


Power of two: 8192
#################################################################################
0
Class 0:
Minimum packet latency = 5
Average packet latency = 17.113
Maximum packet latency = 25
Minimum network latency = 5
Average network latency = 17.113
Maximum network latency = 25
Slowest packet = 663266
Minimum flit latency = 5
Average flit latency = 17.113
Maximum flit latency = 25
Slowest flit = 663266
Minimum fragmentation = 0
Average fragmentation = 0
Maximum fragmentation = 0
Minimum injected packet rate = 0.134 (at node 7550)
Average injected packet rate = 0.199756
Maximum injected packet rate = 0.268 (at node 238)
Minimum accepted packet rate = 0.128 (at node 4055)
Average accepted packet rate = 0.192895
Maximum accepted packet rate = 0.262 (at node 310)
Minimum injected flit rate = 0.134 (at node 7550)
Average injected flit rate = 0.199756
Maximum injected flit rate = 0.268 (at node 238)
Minimum accepted flit rate = 0.128 (at node 4055)
Average accepted flit rate = 0.192895
Maximum accepted flit rate = 0.262 (at node 310)
Average injected packet length = 1
Average accepted packet length = 1
Total in-flight flits = 28101 (0 measured)
latency change    = 1
throughput change = 1
0
Class 0:
Minimum packet latency = 5
Average packet latency = 17.1224
Maximum packet latency = 25
Minimum network latency = 5
Average network latency = 17.1224
Maximum network latency = 25
Slowest packet = 663266
Minimum flit latency = 5
Average flit latency = 17.1224
Maximum flit latency = 25
Slowest flit = 663266
Minimum fragmentation = 0
Average fragmentation = 0
Maximum fragmentation = 0
Minimum injected packet rate = 0.155 (at node 6443)
Average injected packet rate = 0.199976
Maximum injected packet rate = 0.251 (at node 1954)
Minimum accepted packet rate = 0.151 (at node 6803)
Average accepted packet rate = 0.196581
Maximum accepted packet rate = 0.248 (at node 2236)
Minimum injected flit rate = 0.155 (at node 6443)
Average injected flit rate = 0.199976
Maximum injected flit rate = 0.251 (at node 1954)
Minimum accepted flit rate = 0.151 (at node 6803)
Average accepted flit rate = 0.196581
Maximum accepted flit rate = 0.248 (at node 2236)
Average injected packet length = 1
Average accepted packet length = 1
Total in-flight flits = 27811 (0 measured)
latency change    = 0.000552664
throughput change = 0.0187483
0
Class 0:
Minimum packet latency = 5
Average packet latency = 17.1249
Maximum packet latency = 26
Minimum network latency = 5
Average network latency = 17.1249
Maximum network latency = 26
Slowest packet = 1736024
Minimum flit latency = 5
Average flit latency = 17.1249
Maximum flit latency = 26
Slowest flit = 1736024
Minimum fragmentation = 0
Average fragmentation = 0
Maximum fragmentation = 0
Minimum injected packet rate = 0.138 (at node 3962)
Average injected packet rate = 0.200138
Maximum injected packet rate = 0.27 (at node 3500)
Minimum accepted packet rate = 0.138 (at node 2420)
Average accepted packet rate = 0.200085
Maximum accepted packet rate = 0.276 (at node 1718)
Minimum injected flit rate = 0.138 (at node 3962)
Average injected flit rate = 0.200138
Maximum injected flit rate = 0.27 (at node 3500)
Minimum accepted flit rate = 0.138 (at node 2420)
Average accepted flit rate = 0.200085
Maximum accepted flit rate = 0.276 (at node 1718)
Average injected packet length = 1
Average accepted packet length = 1
Total in-flight flits = 28027 (0 measured)
latency change    = 0.000144669
throughput change = 0.0175157
Warmed up ...Time used is 1500 cycles
1
Class 0:
Minimum packet latency = 5
Average packet latency = 17.12
Maximum packet latency = 27
Minimum network latency = 5
Average network latency = 17.12
Maximum network latency = 27
Slowest packet = 3100604
Minimum flit latency = 5
Average flit latency = 17.1297
Maximum flit latency = 27
Slowest flit = 3100604
Minimum fragmentation = 0
Average fragmentation = 0
Maximum fragmentation = 0
Minimum injected packet rate = 0.13 (at node 4736)
Average injected packet rate = 0.199811
Maximum injected packet rate = 0.28 (at node 2650)
Minimum accepted packet rate = 0.134 (at node 41)
Average accepted packet rate = 0.19987
Maximum accepted packet rate = 0.276 (at node 2890)
Minimum injected flit rate = 0.13 (at node 4736)
Average injected flit rate = 0.199811
Maximum injected flit rate = 0.28 (at node 2650)
Minimum accepted flit rate = 0.134 (at node 41)
Average accepted flit rate = 0.19987
Maximum accepted flit rate = 0.276 (at node 2890)
Average injected packet length = 1
Average accepted packet length = 1
Total in-flight flits = 27785 (27785 measured)
latency change    = 0.00028861
throughput change = 0.00107981
1
Class 0:
Minimum packet latency = 5
Average packet latency = 17.127
Maximum packet latency = 27
Minimum network latency = 5
Average network latency = 17.127
Maximum network latency = 27
Slowest packet = 3100604
Minimum flit latency = 5
Average flit latency = 17.1317
Maximum flit latency = 27
Slowest flit = 3100604
Minimum fragmentation = 0
Average fragmentation = 0
Maximum fragmentation = 0
Minimum injected packet rate = 0.15 (at node 3448)
Average injected packet rate = 0.20005
Maximum injected packet rate = 0.251 (at node 6329)
Minimum accepted packet rate = 0.153 (at node 982)
Average accepted packet rate = 0.20006
Maximum accepted packet rate = 0.248 (at node 5027)
Minimum injected flit rate = 0.15 (at node 3448)
Average injected flit rate = 0.20005
Maximum injected flit rate = 0.251 (at node 6329)
Minimum accepted flit rate = 0.153 (at node 982)
Average accepted flit rate = 0.20006
Maximum accepted flit rate = 0.248 (at node 5027)
Average injected packet length = 1
Average accepted packet length = 1
Total in-flight flits = 27945 (27945 measured)
latency change    = 0.000409817
throughput change = 0.000950643
1
Class 0:
Minimum packet latency = 5
Average packet latency = 17.1278
Maximum packet latency = 27
Minimum network latency = 5
Average network latency = 17.1278
Maximum network latency = 27
Slowest packet = 3100604
Minimum flit latency = 5
Average flit latency = 17.131
Maximum flit latency = 27
Slowest flit = 3100604
Minimum fragmentation = 0
Average fragmentation = 0
Maximum fragmentation = 0
Minimum injected packet rate = 0.158 (at node 5314)
Average injected packet rate = 0.200121
Maximum injected packet rate = 0.241333 (at node 5611)
Minimum accepted packet rate = 0.160667 (at node 2149)
Average accepted packet rate = 0.200122
Maximum accepted packet rate = 0.243333 (at node 1799)
Minimum injected flit rate = 0.158 (at node 5314)
Average injected flit rate = 0.200121
Maximum injected flit rate = 0.241333 (at node 5611)
Minimum accepted flit rate = 0.160667 (at node 2149)
Average accepted flit rate = 0.200122
Maximum accepted flit rate = 0.243333 (at node 1799)
Average injected packet length = 1
Average accepted packet length = 1
Total in-flight flits = 28016 (28016 measured)
latency change    = 4.86135e-05
throughput change = 0.000311089
Draining all recorded packets ...
Draining remaining packets ...
Time taken is 3047 cycles
====== Traffic class 0 ======
Overall minimum packet latency = 5 (1 samples)
Overall average packet latency = 17.131 (1 samples)
Overall maximum packet latency = 27 (1 samples)
Overall minimum network latency = 5 (1 samples)
Overall average network latency = 17.131 (1 samples)
Overall maximum network latency = 27 (1 samples)
Overall minimum flit latency = 5 (1 samples)
Overall average flit latency = 17.1336 (1 samples)
Overall maximum flit latency = 27 (1 samples)
Overall minimum fragmentation = 0 (1 samples)
Overall average fragmentation = 0 (1 samples)
Overall maximum fragmentation = 0 (1 samples)
Overall minimum injected packet rate = 0.158 (1 samples)
Overall average injected packet rate = 0.200121 (1 samples)
Overall maximum injected packet rate = 0.241333 (1 samples)
Overall minimum accepted packet rate = 0.160667 (1 samples)
Overall average accepted packet rate = 0.200122 (1 samples)
Overall maximum accepted packet rate = 0.243333 (1 samples)
Overall minimum injected flit rate = 0.158 (1 samples)
Overall average injected flit rate = 0.200121 (1 samples)
Overall maximum injected flit rate = 0.241333 (1 samples)
Overall minimum accepted flit rate = 0.160667 (1 samples)
Overall average accepted flit rate = 0.200122 (1 samples)
Overall maximum accepted flit rate = 0.243333 (1 samples)
Overall average injected packet size = 1 (1 samples)
Overall average accepted packet size = 1 (1 samples)
Overall average hops = 4.84836 (1 samples)
Total run time 949.142
