BEGIN Configuration File: ./FT3
injection_rate = 0.01;
traffic = bitrev;
use_size_power_of_two = yes;
routing_function = anca;
vc_buf_size = 16;
topology = fattree;
use_noc_latency = 0;
hold_switch_for_packet=0;

k = 22;
n = 3;

packet_size  = 1;
num_vcs      = 2;
vc_allocator = separable_input_first; 
sw_allocator = separable_input_first;

alloc_iters   = 1;
sample_period = 500;

wait_for_tail_credit = 0;
use_read_write       = 0;

credit_delay   = 2;
routing_delay  = 0;
vc_alloc_delay = 1;
sw_alloc_delay = 1;
st_final_delay = 1;

input_speedup     = 1;
output_speedup    = 1;
internal_speedup  = 2.0;

warmup_periods = 3;
sim_count      = 1;

priority = none;
injection_rate_uses_flits=1;

END Configuration File: ./FT3
Number of nodes: 10648
Number of routers: 1452
Fat Tree
 k = 22 levels = 3
 each switch - total radix =  44
 # of switches = 1452
 # of channels = 42592
 # of nodes ( size of network ) = 10648


Power of two: 8192
#################################################################################
0
Class 0:
Minimum packet latency = 5
Average packet latency = 16.5373
Maximum packet latency = 19
Minimum network latency = 5
Average network latency = 16.5373
Maximum network latency = 19
Slowest packet = 1727
Minimum flit latency = 5
Average flit latency = 16.5373
Maximum flit latency = 19
Slowest flit = 1727
Minimum fragmentation = 0
Average fragmentation = 0
Maximum fragmentation = 0
Minimum injected packet rate = 0 (at node 101)
Average injected packet rate = 0.0100149
Maximum injected packet rate = 0.03 (at node 2725)
Minimum accepted packet rate = 0 (at node 66)
Average accepted packet rate = 0.00967236
Maximum accepted packet rate = 0.03 (at node 5290)
Minimum injected flit rate = 0 (at node 101)
Average injected flit rate = 0.0100149
Maximum injected flit rate = 0.03 (at node 2725)
Minimum accepted flit rate = 0 (at node 66)
Average accepted flit rate = 0.00967236
Maximum accepted flit rate = 0.03 (at node 5290)
Average injected packet length = 1
Average accepted packet length = 1
Total in-flight flits = 1403 (0 measured)
latency change    = 1
throughput change = 1
0
Class 0:
Minimum packet latency = 5
Average packet latency = 16.5459
Maximum packet latency = 19
Minimum network latency = 5
Average network latency = 16.5459
Maximum network latency = 19
Slowest packet = 1727
Minimum flit latency = 5
Average flit latency = 16.5459
Maximum flit latency = 19
Slowest flit = 1727
Minimum fragmentation = 0
Average fragmentation = 0
Maximum fragmentation = 0
Minimum injected packet rate = 0.001 (at node 1916)
Average injected packet rate = 0.0100062
Maximum injected packet rate = 0.024 (at node 3728)
Minimum accepted packet rate = 0.001 (at node 2012)
Average accepted packet rate = 0.00984473
Maximum accepted packet rate = 0.024 (at node 302)
Minimum injected flit rate = 0.001 (at node 1916)
Average injected flit rate = 0.0100062
Maximum injected flit rate = 0.024 (at node 3728)
Minimum accepted flit rate = 0.001 (at node 2012)
Average accepted flit rate = 0.00984473
Maximum accepted flit rate = 0.024 (at node 302)
Average injected packet length = 1
Average accepted packet length = 1
Total in-flight flits = 1323 (0 measured)
latency change    = 0.000515807
throughput change = 0.0175082
0
Class 0:
Minimum packet latency = 5
Average packet latency = 16.5476
Maximum packet latency = 19
Minimum network latency = 5
Average network latency = 16.5476
Maximum network latency = 19
Slowest packet = 83480
Minimum flit latency = 5
Average flit latency = 16.5476
Maximum flit latency = 19
Slowest flit = 83480
Minimum fragmentation = 0
Average fragmentation = 0
Maximum fragmentation = 0
Minimum injected packet rate = 0 (at node 60)
Average injected packet rate = 0.0099707
Maximum injected packet rate = 0.03 (at node 5034)
Minimum accepted packet rate = 0 (at node 60)
Average accepted packet rate = 0.00997314
Maximum accepted packet rate = 0.03 (at node 6373)
Minimum injected flit rate = 0 (at node 60)
Average injected flit rate = 0.0099707
Maximum injected flit rate = 0.03 (at node 5034)
Minimum accepted flit rate = 0 (at node 60)
Average accepted flit rate = 0.00997314
Maximum accepted flit rate = 0.03 (at node 6373)
Average injected packet length = 1
Average accepted packet length = 1
Total in-flight flits = 1313 (0 measured)
latency change    = 0.000104109
throughput change = 0.0128764
Warmed up ...Time used is 1500 cycles
1
Class 0:
Minimum packet latency = 5
Average packet latency = 16.554
Maximum packet latency = 19
Minimum network latency = 5
Average network latency = 16.554
Maximum network latency = 19
Slowest packet = 140361
Minimum flit latency = 5
Average flit latency = 16.5607
Maximum flit latency = 19
Slowest flit = 140361
Minimum fragmentation = 0
Average fragmentation = 0
Maximum fragmentation = 0
Minimum injected packet rate = 0 (at node 413)
Average injected packet rate = 0.00998193
Maximum injected packet rate = 0.03 (at node 3623)
Minimum accepted packet rate = 0 (at node 84)
Average accepted packet rate = 0.00998071
Maximum accepted packet rate = 0.03 (at node 7310)
Minimum injected flit rate = 0 (at node 413)
Average injected flit rate = 0.00998193
Maximum injected flit rate = 0.03 (at node 3623)
Minimum accepted flit rate = 0 (at node 84)
Average accepted flit rate = 0.00998071
Maximum accepted flit rate = 0.03 (at node 7310)
Average injected packet length = 1
Average accepted packet length = 1
Total in-flight flits = 1318 (1318 measured)
latency change    = 0.000384742
throughput change = 0.000758298
1
Class 0:
Minimum packet latency = 5
Average packet latency = 16.5629
Maximum packet latency = 20
Minimum network latency = 5
Average network latency = 16.5629
Maximum network latency = 20
Slowest packet = 170743
Minimum flit latency = 5
Average flit latency = 16.5661
Maximum flit latency = 20
Slowest flit = 170743
Minimum fragmentation = 0
Average fragmentation = 0
Maximum fragmentation = 0
Minimum injected packet rate = 0.001 (at node 2560)
Average injected packet rate = 0.0100521
Maximum injected packet rate = 0.023 (at node 1108)
Minimum accepted packet rate = 0.001 (at node 10)
Average accepted packet rate = 0.0100438
Maximum accepted packet rate = 0.023 (at node 732)
Minimum injected flit rate = 0.001 (at node 2560)
Average injected flit rate = 0.0100521
Maximum injected flit rate = 0.023 (at node 1108)
Minimum accepted flit rate = 0.001 (at node 10)
Average accepted flit rate = 0.0100438
Maximum accepted flit rate = 0.023 (at node 732)
Average injected packet length = 1
Average accepted packet length = 1
Total in-flight flits = 1381 (1381 measured)
latency change    = 0.000540075
throughput change = 0.0062835
1
Class 0:
Minimum packet latency = 5
Average packet latency = 16.5643
Maximum packet latency = 20
Minimum network latency = 5
Average network latency = 16.5643
Maximum network latency = 20
Slowest packet = 170743
Minimum flit latency = 5
Average flit latency = 16.5664
Maximum flit latency = 20
Slowest flit = 170743
Minimum fragmentation = 0
Average fragmentation = 0
Maximum fragmentation = 0
Minimum injected packet rate = 0.002 (at node 3072)
Average injected packet rate = 0.0100244
Maximum injected packet rate = 0.0213333 (at node 3939)
Minimum accepted packet rate = 0.002 (at node 6)
Average accepted packet rate = 0.010017
Maximum accepted packet rate = 0.0213333 (at node 6366)
Minimum injected flit rate = 0.002 (at node 3072)
Average injected flit rate = 0.0100244
Maximum injected flit rate = 0.0213333 (at node 3939)
Minimum accepted flit rate = 0.002 (at node 6)
Average accepted flit rate = 0.010017
Maximum accepted flit rate = 0.0213333 (at node 6366)
Average injected packet length = 1
Average accepted packet length = 1
Total in-flight flits = 1404 (1404 measured)
latency change    = 8.42437e-05
throughput change = 0.00267692
Draining all recorded packets ...
Draining remaining packets ...
Time taken is 3040 cycles
====== Traffic class 0 ======
Overall minimum packet latency = 5 (1 samples)
Overall average packet latency = 16.5676 (1 samples)
Overall maximum packet latency = 20 (1 samples)
Overall minimum network latency = 5 (1 samples)
Overall average network latency = 16.5676 (1 samples)
Overall maximum network latency = 20 (1 samples)
Overall minimum flit latency = 5 (1 samples)
Overall average flit latency = 16.5697 (1 samples)
Overall maximum flit latency = 20 (1 samples)
Overall minimum fragmentation = 0 (1 samples)
Overall average fragmentation = 0 (1 samples)
Overall maximum fragmentation = 0 (1 samples)
Overall minimum injected packet rate = 0.002 (1 samples)
Overall average injected packet rate = 0.0100244 (1 samples)
Overall maximum injected packet rate = 0.0213333 (1 samples)
Overall minimum accepted packet rate = 0.002 (1 samples)
Overall average accepted packet rate = 0.010017 (1 samples)
Overall maximum accepted packet rate = 0.0213333 (1 samples)
Overall minimum injected flit rate = 0.002 (1 samples)
Overall average injected flit rate = 0.0100244 (1 samples)
Overall maximum injected flit rate = 0.0213333 (1 samples)
Overall minimum accepted flit rate = 0.002 (1 samples)
Overall average accepted flit rate = 0.010017 (1 samples)
Overall maximum accepted flit rate = 0.0213333 (1 samples)
Overall average injected packet size = 1 (1 samples)
Overall average accepted packet size = 1 (1 samples)
Overall average hops = 4.8496 (1 samples)
Total run time 306.269
