BEGIN Configuration File: ./FT3
injection_rate = 0.3;
traffic = bitrev;
use_size_power_of_two = yes;
routing_function = anca;
vc_buf_size = 16;
topology = fattree;
use_noc_latency = 0;
hold_switch_for_packet=0;

k = 22;
n = 3;

packet_size  = 1;
num_vcs      = 2;
vc_allocator = separable_input_first; 
sw_allocator = separable_input_first;

alloc_iters   = 1;
sample_period = 500;

wait_for_tail_credit = 0;
use_read_write       = 0;

credit_delay   = 2;
routing_delay  = 0;
vc_alloc_delay = 1;
sw_alloc_delay = 1;
st_final_delay = 1;

input_speedup     = 1;
output_speedup    = 1;
internal_speedup  = 2.0;

warmup_periods = 3;
sim_count      = 1;

priority = none;
injection_rate_uses_flits=1;

END Configuration File: ./FT3
Number of nodes: 10648
Number of routers: 1452
Fat Tree
 k = 22 levels = 3
 each switch - total radix =  44
 # of switches = 1452
 # of channels = 42592
 # of nodes ( size of network ) = 10648


Power of two: 8192
#################################################################################
0
Class 0:
Minimum packet latency = 5
Average packet latency = 17.5678
Maximum packet latency = 28
Minimum network latency = 5
Average network latency = 17.5678
Maximum network latency = 28
Slowest packet = 126661
Minimum flit latency = 5
Average flit latency = 17.5678
Maximum flit latency = 28
Slowest flit = 126661
Minimum fragmentation = 0
Average fragmentation = 0
Maximum fragmentation = 0
Minimum injected packet rate = 0.228 (at node 7550)
Average injected packet rate = 0.299721
Maximum injected packet rate = 0.376 (at node 4197)
Minimum accepted packet rate = 0.216 (at node 4055)
Average accepted packet rate = 0.289109
Maximum accepted packet rate = 0.362 (at node 1199)
Minimum injected flit rate = 0.228 (at node 7550)
Average injected flit rate = 0.299721
Maximum injected flit rate = 0.376 (at node 4197)
Minimum accepted flit rate = 0.216 (at node 4055)
Average accepted flit rate = 0.289109
Maximum accepted flit rate = 0.362 (at node 1199)
Average injected packet length = 1
Average accepted packet length = 1
Total in-flight flits = 43468 (0 measured)
latency change    = 1
throughput change = 1
0
Class 0:
Minimum packet latency = 5
Average packet latency = 17.5773
Maximum packet latency = 28
Minimum network latency = 5
Average network latency = 17.5773
Maximum network latency = 28
Slowest packet = 126661
Minimum flit latency = 5
Average flit latency = 17.5773
Maximum flit latency = 28
Slowest flit = 126661
Minimum fragmentation = 0
Average fragmentation = 0
Maximum fragmentation = 0
Minimum injected packet rate = 0.252 (at node 2677)
Average injected packet rate = 0.299846
Maximum injected packet rate = 0.359 (at node 3923)
Minimum accepted packet rate = 0.245 (at node 931)
Average accepted packet rate = 0.294611
Maximum accepted packet rate = 0.35 (at node 6494)
Minimum injected flit rate = 0.252 (at node 2677)
Average injected flit rate = 0.299846
Maximum injected flit rate = 0.359 (at node 3923)
Minimum accepted flit rate = 0.245 (at node 931)
Average accepted flit rate = 0.294611
Maximum accepted flit rate = 0.35 (at node 6494)
Average injected packet length = 1
Average accepted packet length = 1
Total in-flight flits = 42885 (0 measured)
latency change    = 0.000543696
throughput change = 0.0186765
0
Class 0:
Minimum packet latency = 5
Average packet latency = 17.5857
Maximum packet latency = 29
Minimum network latency = 5
Average network latency = 17.5857
Maximum network latency = 29
Slowest packet = 3139660
Minimum flit latency = 5
Average flit latency = 17.5857
Maximum flit latency = 29
Slowest flit = 3139660
Minimum fragmentation = 0
Average fragmentation = 0
Maximum fragmentation = 0
Minimum injected packet rate = 0.216 (at node 3962)
Average injected packet rate = 0.300108
Maximum injected packet rate = 0.372 (at node 2154)
Minimum accepted packet rate = 0.226 (at node 3038)
Average accepted packet rate = 0.30001
Maximum accepted packet rate = 0.386 (at node 4863)
Minimum injected flit rate = 0.216 (at node 3962)
Average injected flit rate = 0.300108
Maximum injected flit rate = 0.372 (at node 2154)
Minimum accepted flit rate = 0.226 (at node 3038)
Average accepted flit rate = 0.30001
Maximum accepted flit rate = 0.386 (at node 4863)
Average injected packet length = 1
Average accepted packet length = 1
Total in-flight flits = 43289 (0 measured)
latency change    = 0.000475675
throughput change = 0.0179946
Warmed up ...Time used is 1500 cycles
1
Class 0:
Minimum packet latency = 5
Average packet latency = 17.5755
Maximum packet latency = 29
Minimum network latency = 5
Average network latency = 17.5755
Maximum network latency = 29
Slowest packet = 4232740
Minimum flit latency = 5
Average flit latency = 17.5877
Maximum flit latency = 29
Slowest flit = 4232740
Minimum fragmentation = 0
Average fragmentation = 0
Maximum fragmentation = 0
Minimum injected packet rate = 0.226 (at node 6621)
Average injected packet rate = 0.299799
Maximum injected packet rate = 0.378 (at node 3013)
Minimum accepted packet rate = 0.228 (at node 3123)
Average accepted packet rate = 0.29986
Maximum accepted packet rate = 0.378 (at node 5242)
Minimum injected flit rate = 0.226 (at node 6621)
Average injected flit rate = 0.299799
Maximum injected flit rate = 0.378 (at node 3013)
Minimum accepted flit rate = 0.228 (at node 3123)
Average accepted flit rate = 0.29986
Maximum accepted flit rate = 0.378 (at node 5242)
Average injected packet length = 1
Average accepted packet length = 1
Total in-flight flits = 43038 (43038 measured)
latency change    = 0.000578478
throughput change = 0.000499908
1
Class 0:
Minimum packet latency = 5
Average packet latency = 17.5832
Maximum packet latency = 30
Minimum network latency = 5
Average network latency = 17.5832
Maximum network latency = 30
Slowest packet = 5869346
Minimum flit latency = 5
Average flit latency = 17.5892
Maximum flit latency = 30
Slowest flit = 5869346
Minimum fragmentation = 0
Average fragmentation = 0
Maximum fragmentation = 0
Minimum injected packet rate = 0.25 (at node 3096)
Average injected packet rate = 0.299984
Maximum injected packet rate = 0.356 (at node 2470)
Minimum accepted packet rate = 0.249 (at node 5109)
Average accepted packet rate = 0.300009
Maximum accepted packet rate = 0.355 (at node 3250)
Minimum injected flit rate = 0.25 (at node 3096)
Average injected flit rate = 0.299984
Maximum injected flit rate = 0.356 (at node 2470)
Minimum accepted flit rate = 0.249 (at node 5109)
Average accepted flit rate = 0.300009
Maximum accepted flit rate = 0.355 (at node 3250)
Average injected packet length = 1
Average accepted packet length = 1
Total in-flight flits = 43089 (43089 measured)
latency change    = 0.000438632
throughput change = 0.000495591
1
Class 0:
Minimum packet latency = 5
Average packet latency = 17.5842
Maximum packet latency = 30
Minimum network latency = 5
Average network latency = 17.5842
Maximum network latency = 30
Slowest packet = 5869346
Minimum flit latency = 5
Average flit latency = 17.5882
Maximum flit latency = 30
Slowest flit = 5869346
Minimum fragmentation = 0
Average fragmentation = 0
Maximum fragmentation = 0
Minimum injected packet rate = 0.255333 (at node 3096)
Average injected packet rate = 0.300054
Maximum injected packet rate = 0.342667 (at node 5611)
Minimum accepted packet rate = 0.256 (at node 774)
Average accepted packet rate = 0.300058
Maximum accepted packet rate = 0.343333 (at node 6901)
Minimum injected flit rate = 0.255333 (at node 3096)
Average injected flit rate = 0.300054
Maximum injected flit rate = 0.342667 (at node 5611)
Minimum accepted flit rate = 0.256 (at node 774)
Average accepted flit rate = 0.300058
Maximum accepted flit rate = 0.343333 (at node 6901)
Average injected packet length = 1
Average accepted packet length = 1
Total in-flight flits = 43233 (43233 measured)
latency change    = 5.57349e-05
throughput change = 0.000165983
Draining all recorded packets ...
Draining remaining packets ...
Time taken is 3051 cycles
====== Traffic class 0 ======
Overall minimum packet latency = 5 (1 samples)
Overall average packet latency = 17.588 (1 samples)
Overall maximum packet latency = 30 (1 samples)
Overall minimum network latency = 5 (1 samples)
Overall average network latency = 17.588 (1 samples)
Overall maximum network latency = 30 (1 samples)
Overall minimum flit latency = 5 (1 samples)
Overall average flit latency = 17.5914 (1 samples)
Overall maximum flit latency = 30 (1 samples)
Overall minimum fragmentation = 0 (1 samples)
Overall average fragmentation = 0 (1 samples)
Overall maximum fragmentation = 0 (1 samples)
Overall minimum injected packet rate = 0.255333 (1 samples)
Overall average injected packet rate = 0.300054 (1 samples)
Overall maximum injected packet rate = 0.342667 (1 samples)
Overall minimum accepted packet rate = 0.256 (1 samples)
Overall average accepted packet rate = 0.300058 (1 samples)
Overall maximum accepted packet rate = 0.343333 (1 samples)
Overall minimum injected flit rate = 0.255333 (1 samples)
Overall average injected flit rate = 0.300054 (1 samples)
Overall maximum injected flit rate = 0.342667 (1 samples)
Overall minimum accepted flit rate = 0.256 (1 samples)
Overall average accepted flit rate = 0.300058 (1 samples)
Overall maximum accepted flit rate = 0.343333 (1 samples)
Overall average injected packet size = 1 (1 samples)
Overall average accepted packet size = 1 (1 samples)
Overall average hops = 4.84852 (1 samples)
Total run time 1284.26
