BEGIN Configuration File: ./FT3
injection_rate = 0.1;
traffic = bitrev;
use_size_power_of_two = yes;
routing_function = anca;
vc_buf_size = 16;
topology = fattree;
use_noc_latency = 0;
hold_switch_for_packet=0;

k = 22;
n = 3;

packet_size  = 1;
num_vcs      = 2;
vc_allocator = separable_input_first; 
sw_allocator = separable_input_first;

alloc_iters   = 1;
sample_period = 500;

wait_for_tail_credit = 0;
use_read_write       = 0;

credit_delay   = 2;
routing_delay  = 0;
vc_alloc_delay = 1;
sw_alloc_delay = 1;
st_final_delay = 1;

input_speedup     = 1;
output_speedup    = 1;
internal_speedup  = 2.0;

warmup_periods = 3;
sim_count      = 1;

priority = none;
injection_rate_uses_flits=1;

END Configuration File: ./FT3
Number of nodes: 10648
Number of routers: 1452
Fat Tree
 k = 22 levels = 3
 each switch - total radix =  44
 # of switches = 1452
 # of channels = 42592
 # of nodes ( size of network ) = 10648


Power of two: 8192
#################################################################################
0
Class 0:
Minimum packet latency = 5
Average packet latency = 16.7726
Maximum packet latency = 22
Minimum network latency = 5
Average network latency = 16.7726
Maximum network latency = 22
Slowest packet = 17322
Minimum flit latency = 5
Average flit latency = 16.7726
Maximum flit latency = 22
Slowest flit = 17322
Minimum fragmentation = 0
Average fragmentation = 0
Maximum fragmentation = 0
Minimum injected packet rate = 0.058 (at node 242)
Average injected packet rate = 0.0998809
Maximum injected packet rate = 0.158 (at node 5911)
Minimum accepted packet rate = 0.054 (at node 1005)
Average accepted packet rate = 0.0965103
Maximum accepted packet rate = 0.15 (at node 7453)
Minimum injected flit rate = 0.058 (at node 242)
Average injected flit rate = 0.0998809
Maximum injected flit rate = 0.158 (at node 5911)
Minimum accepted flit rate = 0.054 (at node 1005)
Average accepted flit rate = 0.0965103
Maximum accepted flit rate = 0.15 (at node 7453)
Average injected packet length = 1
Average accepted packet length = 1
Total in-flight flits = 13806 (0 measured)
latency change    = 1
throughput change = 1
0
Class 0:
Minimum packet latency = 5
Average packet latency = 16.7806
Maximum packet latency = 23
Minimum network latency = 5
Average network latency = 16.7806
Maximum network latency = 23
Slowest packet = 479700
Minimum flit latency = 5
Average flit latency = 16.7806
Maximum flit latency = 23
Slowest flit = 479700
Minimum fragmentation = 0
Average fragmentation = 0
Maximum fragmentation = 0
Minimum injected packet rate = 0.066 (at node 4326)
Average injected packet rate = 0.0999166
Maximum injected packet rate = 0.137 (at node 6882)
Minimum accepted packet rate = 0.065 (at node 3297)
Average accepted packet rate = 0.0982446
Maximum accepted packet rate = 0.134 (at node 2283)
Minimum injected flit rate = 0.066 (at node 4326)
Average injected flit rate = 0.0999166
Maximum injected flit rate = 0.137 (at node 6882)
Minimum accepted flit rate = 0.065 (at node 3297)
Average accepted flit rate = 0.0982446
Maximum accepted flit rate = 0.134 (at node 2283)
Average injected packet length = 1
Average accepted packet length = 1
Total in-flight flits = 13697 (0 measured)
latency change    = 0.000477472
throughput change = 0.0176536
0
Class 0:
Minimum packet latency = 5
Average packet latency = 16.7803
Maximum packet latency = 22
Minimum network latency = 5
Average network latency = 16.7803
Maximum network latency = 22
Slowest packet = 845806
Minimum flit latency = 5
Average flit latency = 16.7803
Maximum flit latency = 22
Slowest flit = 845806
Minimum fragmentation = 0
Average fragmentation = 0
Maximum fragmentation = 0
Minimum injected packet rate = 0.056 (at node 1989)
Average injected packet rate = 0.100041
Maximum injected packet rate = 0.158 (at node 6341)
Minimum accepted packet rate = 0.054 (at node 5244)
Average accepted packet rate = 0.100013
Maximum accepted packet rate = 0.162 (at node 5219)
Minimum injected flit rate = 0.056 (at node 1989)
Average injected flit rate = 0.100041
Maximum injected flit rate = 0.158 (at node 6341)
Minimum accepted flit rate = 0.054 (at node 5244)
Average accepted flit rate = 0.100013
Maximum accepted flit rate = 0.162 (at node 5219)
Average injected packet length = 1
Average accepted packet length = 1
Total in-flight flits = 13814 (0 measured)
latency change    = 1.85378e-05
throughput change = 0.0176784
Warmed up ...Time used is 1500 cycles
1
Class 0:
Minimum packet latency = 5
Average packet latency = 16.7783
Maximum packet latency = 23
Minimum network latency = 5
Average network latency = 16.7783
Maximum network latency = 23
Slowest packet = 1374312
Minimum flit latency = 5
Average flit latency = 16.7866
Maximum flit latency = 23
Slowest flit = 1374312
Minimum fragmentation = 0
Average fragmentation = 0
Maximum fragmentation = 0
Minimum injected packet rate = 0.058 (at node 2158)
Average injected packet rate = 0.0998091
Maximum injected packet rate = 0.156 (at node 6323)
Minimum accepted packet rate = 0.054 (at node 8175)
Average accepted packet rate = 0.0998293
Maximum accepted packet rate = 0.154 (at node 368)
Minimum injected flit rate = 0.058 (at node 2158)
Average injected flit rate = 0.0998091
Maximum injected flit rate = 0.156 (at node 6323)
Minimum accepted flit rate = 0.054 (at node 8175)
Average accepted flit rate = 0.0998293
Maximum accepted flit rate = 0.154 (at node 368)
Average injected packet length = 1
Average accepted packet length = 1
Total in-flight flits = 13731 (13731 measured)
latency change    = 0.000117583
throughput change = 0.00183663
1
Class 0:
Minimum packet latency = 5
Average packet latency = 16.7842
Maximum packet latency = 23
Minimum network latency = 5
Average network latency = 16.7842
Maximum network latency = 23
Slowest packet = 1374312
Minimum flit latency = 5
Average flit latency = 16.7883
Maximum flit latency = 23
Slowest flit = 1374312
Minimum fragmentation = 0
Average fragmentation = 0
Maximum fragmentation = 0
Minimum injected packet rate = 0.066 (at node 2158)
Average injected packet rate = 0.0999216
Maximum injected packet rate = 0.144 (at node 1986)
Minimum accepted packet rate = 0.068 (at node 3778)
Average accepted packet rate = 0.0999551
Maximum accepted packet rate = 0.141 (at node 2172)
Minimum injected flit rate = 0.066 (at node 2158)
Average injected flit rate = 0.0999216
Maximum injected flit rate = 0.144 (at node 1986)
Minimum accepted flit rate = 0.068 (at node 3778)
Average accepted flit rate = 0.0999551
Maximum accepted flit rate = 0.141 (at node 2172)
Average injected packet length = 1
Average accepted packet length = 1
Total in-flight flits = 13540 (13540 measured)
latency change    = 0.000351627
throughput change = 0.00125789
1
Class 0:
Minimum packet latency = 5
Average packet latency = 16.7853
Maximum packet latency = 23
Minimum network latency = 5
Average network latency = 16.7853
Maximum network latency = 23
Slowest packet = 1374312
Minimum flit latency = 5
Average flit latency = 16.788
Maximum flit latency = 23
Slowest flit = 1374312
Minimum fragmentation = 0
Average fragmentation = 0
Maximum fragmentation = 0
Minimum injected packet rate = 0.0733333 (at node 2158)
Average injected packet rate = 0.100033
Maximum injected packet rate = 0.132667 (at node 1986)
Minimum accepted packet rate = 0.074 (at node 7524)
Average accepted packet rate = 0.100037
Maximum accepted packet rate = 0.132667 (at node 2172)
Minimum injected flit rate = 0.0733333 (at node 2158)
Average injected flit rate = 0.100033
Maximum injected flit rate = 0.132667 (at node 1986)
Minimum accepted flit rate = 0.074 (at node 7524)
Average accepted flit rate = 0.100037
Maximum accepted flit rate = 0.132667 (at node 2172)
Average injected packet length = 1
Average accepted packet length = 1
Total in-flight flits = 13765 (13765 measured)
latency change    = 6.40865e-05
throughput change = 0.00081757
Draining all recorded packets ...
Draining remaining packets ...
Time taken is 3043 cycles
====== Traffic class 0 ======
Overall minimum packet latency = 5 (1 samples)
Overall average packet latency = 16.788 (1 samples)
Overall maximum packet latency = 23 (1 samples)
Overall minimum network latency = 5 (1 samples)
Overall average network latency = 16.788 (1 samples)
Overall maximum network latency = 23 (1 samples)
Overall minimum flit latency = 5 (1 samples)
Overall average flit latency = 16.7902 (1 samples)
Overall maximum flit latency = 23 (1 samples)
Overall minimum fragmentation = 0 (1 samples)
Overall average fragmentation = 0 (1 samples)
Overall maximum fragmentation = 0 (1 samples)
Overall minimum injected packet rate = 0.0733333 (1 samples)
Overall average injected packet rate = 0.100033 (1 samples)
Overall maximum injected packet rate = 0.132667 (1 samples)
Overall minimum accepted packet rate = 0.074 (1 samples)
Overall average accepted packet rate = 0.100037 (1 samples)
Overall maximum accepted packet rate = 0.132667 (1 samples)
Overall minimum injected flit rate = 0.0733333 (1 samples)
Overall average injected flit rate = 0.100033 (1 samples)
Overall maximum injected flit rate = 0.132667 (1 samples)
Overall minimum accepted flit rate = 0.074 (1 samples)
Overall average accepted flit rate = 0.100037 (1 samples)
Overall maximum accepted flit rate = 0.132667 (1 samples)
Overall average injected packet size = 1 (1 samples)
Overall average accepted packet size = 1 (1 samples)
Overall average hops = 4.84882 (1 samples)
Total run time 624.583
