BEGIN Configuration File: ./FT3
injection_rate = 0.8;
traffic = bitrev;
use_size_power_of_two = yes;
routing_function = anca;
vc_buf_size = 16;
topology = fattree;
use_noc_latency = 0;
hold_switch_for_packet=0;

k = 22;
n = 3;

packet_size  = 1;
num_vcs      = 2;
vc_allocator = separable_input_first; 
sw_allocator = separable_input_first;

alloc_iters   = 1;
sample_period = 500;

wait_for_tail_credit = 0;
use_read_write       = 0;

credit_delay   = 2;
routing_delay  = 0;
vc_alloc_delay = 1;
sw_alloc_delay = 1;
st_final_delay = 1;

input_speedup     = 1;
output_speedup    = 1;
internal_speedup  = 2.0;

warmup_periods = 3;
sim_count      = 1;

priority = none;
injection_rate_uses_flits=1;

END Configuration File: ./FT3
Number of nodes: 10648
Number of routers: 1452
Fat Tree
 k = 22 levels = 3
 each switch - total radix =  44
 # of switches = 1452
 # of channels = 42592
 # of nodes ( size of network ) = 10648


Power of two: 8192
#################################################################################
0
Class 0:
Minimum packet latency = 5
Average packet latency = 24.2846
Maximum packet latency = 59
Minimum network latency = 5
Average network latency = 24.2846
Maximum network latency = 59
Slowest packet = 813969
Minimum flit latency = 5
Average flit latency = 24.2846
Maximum flit latency = 59
Slowest flit = 813969
Minimum fragmentation = 0
Average fragmentation = 0
Maximum fragmentation = 0
Minimum injected packet rate = 0.728 (at node 5117)
Average injected packet rate = 0.799753
Maximum injected packet rate = 0.868 (at node 7128)
Minimum accepted packet rate = 0.692 (at node 27)
Average accepted packet rate = 0.760412
Maximum accepted packet rate = 0.834 (at node 3142)
Minimum injected flit rate = 0.728 (at node 5117)
Average injected flit rate = 0.799753
Maximum injected flit rate = 0.868 (at node 7128)
Minimum accepted flit rate = 0.692 (at node 27)
Average accepted flit rate = 0.760412
Maximum accepted flit rate = 0.834 (at node 3142)
Average injected packet length = 1
Average accepted packet length = 1
Total in-flight flits = 161140 (0 measured)
latency change    = 1
throughput change = 1
0
Class 0:
Minimum packet latency = 5
Average packet latency = 24.4343
Maximum packet latency = 62
Minimum network latency = 5
Average network latency = 24.4343
Maximum network latency = 62
Slowest packet = 3268296
Minimum flit latency = 5
Average flit latency = 24.4343
Maximum flit latency = 62
Slowest flit = 3268296
Minimum fragmentation = 0
Average fragmentation = 0
Maximum fragmentation = 0
Minimum injected packet rate = 0.747 (at node 2823)
Average injected packet rate = 0.799856
Maximum injected packet rate = 0.849 (at node 1229)
Minimum accepted packet rate = 0.729 (at node 7194)
Average accepted packet rate = 0.780299
Maximum accepted packet rate = 0.827 (at node 3142)
Minimum injected flit rate = 0.747 (at node 2823)
Average injected flit rate = 0.799856
Maximum injected flit rate = 0.849 (at node 1229)
Minimum accepted flit rate = 0.729 (at node 7194)
Average accepted flit rate = 0.780299
Maximum accepted flit rate = 0.827 (at node 3142)
Average injected packet length = 1
Average accepted packet length = 1
Total in-flight flits = 160212 (0 measured)
latency change    = 0.00612895
throughput change = 0.025486
0
Class 0:
Minimum packet latency = 5
Average packet latency = 24.56
Maximum packet latency = 62
Minimum network latency = 5
Average network latency = 24.56
Maximum network latency = 62
Slowest packet = 8433403
Minimum flit latency = 5
Average flit latency = 24.56
Maximum flit latency = 62
Slowest flit = 8433403
Minimum fragmentation = 0
Average fragmentation = 0
Maximum fragmentation = 0
Minimum injected packet rate = 0.73 (at node 7502)
Average injected packet rate = 0.80008
Maximum injected packet rate = 0.862 (at node 1309)
Minimum accepted packet rate = 0.73 (at node 1560)
Average accepted packet rate = 0.79982
Maximum accepted packet rate = 0.866 (at node 4763)
Minimum injected flit rate = 0.73 (at node 7502)
Average injected flit rate = 0.80008
Maximum injected flit rate = 0.862 (at node 1309)
Minimum accepted flit rate = 0.73 (at node 1560)
Average accepted flit rate = 0.79982
Maximum accepted flit rate = 0.866 (at node 4763)
Average injected packet length = 1
Average accepted packet length = 1
Total in-flight flits = 161278 (0 measured)
latency change    = 0.00511463
throughput change = 0.024407
Warmed up ...Time used is 1500 cycles
1
Class 0:
Minimum packet latency = 5
Average packet latency = 24.5009
Maximum packet latency = 58
Minimum network latency = 5
Average network latency = 24.5009
Maximum network latency = 58
Slowest packet = 10381689
Minimum flit latency = 5
Average flit latency = 24.5599
Maximum flit latency = 60
Slowest flit = 9671497
Minimum fragmentation = 0
Average fragmentation = 0
Maximum fragmentation = 0
Minimum injected packet rate = 0.73 (at node 4180)
Average injected packet rate = 0.799792
Maximum injected packet rate = 0.864 (at node 7779)
Minimum accepted packet rate = 0.732 (at node 1971)
Average accepted packet rate = 0.799849
Maximum accepted packet rate = 0.862 (at node 6351)
Minimum injected flit rate = 0.73 (at node 4180)
Average injected flit rate = 0.799792
Maximum injected flit rate = 0.864 (at node 7779)
Minimum accepted flit rate = 0.732 (at node 1971)
Average accepted flit rate = 0.799849
Maximum accepted flit rate = 0.862 (at node 6351)
Average injected packet length = 1
Average accepted packet length = 1
Total in-flight flits = 161044 (161044 measured)
latency change    = 0.00241103
throughput change = 3.6628e-05
1
Class 0:
Minimum packet latency = 5
Average packet latency = 24.5405
Maximum packet latency = 62
Minimum network latency = 5
Average network latency = 24.5405
Maximum network latency = 62
Slowest packet = 15552930
Minimum flit latency = 5
Average flit latency = 24.569
Maximum flit latency = 62
Slowest flit = 15552930
Minimum fragmentation = 0
Average fragmentation = 0
Maximum fragmentation = 0
Minimum injected packet rate = 0.752 (at node 6705)
Average injected packet rate = 0.799962
Maximum injected packet rate = 0.851 (at node 136)
Minimum accepted packet rate = 0.755 (at node 6441)
Average accepted packet rate = 0.800052
Maximum accepted packet rate = 0.849 (at node 544)
Minimum injected flit rate = 0.752 (at node 6705)
Average injected flit rate = 0.799962
Maximum injected flit rate = 0.851 (at node 136)
Minimum accepted flit rate = 0.755 (at node 6441)
Average accepted flit rate = 0.800052
Maximum accepted flit rate = 0.849 (at node 544)
Average injected packet length = 1
Average accepted packet length = 1
Total in-flight flits = 160545 (160545 measured)
latency change    = 0.00161312
throughput change = 0.000252974
1
Class 0:
Minimum packet latency = 5
Average packet latency = 24.5531
Maximum packet latency = 62
Minimum network latency = 5
Average network latency = 24.5531
Maximum network latency = 62
Slowest packet = 15552930
Minimum flit latency = 5
Average flit latency = 24.572
Maximum flit latency = 62
Slowest flit = 15552930
Minimum fragmentation = 0
Average fragmentation = 0
Maximum fragmentation = 0
Minimum injected packet rate = 0.757333 (at node 7281)
Average injected packet rate = 0.800022
Maximum injected packet rate = 0.838 (at node 3179)
Minimum accepted packet rate = 0.759333 (at node 4551)
Average accepted packet rate = 0.800026
Maximum accepted packet rate = 0.836667 (at node 6854)
Minimum injected flit rate = 0.757333 (at node 7281)
Average injected flit rate = 0.800022
Maximum injected flit rate = 0.838 (at node 3179)
Minimum accepted flit rate = 0.759333 (at node 4551)
Average accepted flit rate = 0.800026
Maximum accepted flit rate = 0.836667 (at node 6854)
Average injected packet length = 1
Average accepted packet length = 1
Total in-flight flits = 161228 (161228 measured)
latency change    = 0.00051597
throughput change = 3.20424e-05
Draining all recorded packets ...
Draining remaining packets ...
Time taken is 3094 cycles
====== Traffic class 0 ======
Overall minimum packet latency = 5 (1 samples)
Overall average packet latency = 24.5719 (1 samples)
Overall maximum packet latency = 62 (1 samples)
Overall minimum network latency = 5 (1 samples)
Overall average network latency = 24.5719 (1 samples)
Overall maximum network latency = 62 (1 samples)
Overall minimum flit latency = 5 (1 samples)
Overall average flit latency = 24.5856 (1 samples)
Overall maximum flit latency = 62 (1 samples)
Overall minimum fragmentation = 0 (1 samples)
Overall average fragmentation = 0 (1 samples)
Overall maximum fragmentation = 0 (1 samples)
Overall minimum injected packet rate = 0.757333 (1 samples)
Overall average injected packet rate = 0.800022 (1 samples)
Overall maximum injected packet rate = 0.838 (1 samples)
Overall minimum accepted packet rate = 0.759333 (1 samples)
Overall average accepted packet rate = 0.800026 (1 samples)
Overall maximum accepted packet rate = 0.836667 (1 samples)
Overall minimum injected flit rate = 0.757333 (1 samples)
Overall average injected flit rate = 0.800022 (1 samples)
Overall maximum injected flit rate = 0.838 (1 samples)
Overall minimum accepted flit rate = 0.759333 (1 samples)
Overall average accepted flit rate = 0.800026 (1 samples)
Overall maximum accepted flit rate = 0.836667 (1 samples)
Overall average injected packet size = 1 (1 samples)
Overall average accepted packet size = 1 (1 samples)
Overall average hops = 4.84865 (1 samples)
Total run time 3058.88
