BEGIN Configuration File: ./FT3
injection_rate = 0.9;
traffic = bitrev;
use_size_power_of_two = yes;
routing_function = anca;
vc_buf_size = 16;
topology = fattree;
use_noc_latency = 0;
hold_switch_for_packet=0;

k = 22;
n = 3;

packet_size  = 1;
num_vcs      = 2;
vc_allocator = separable_input_first; 
sw_allocator = separable_input_first;

alloc_iters   = 1;
sample_period = 500;

wait_for_tail_credit = 0;
use_read_write       = 0;

credit_delay   = 2;
routing_delay  = 0;
vc_alloc_delay = 1;
sw_alloc_delay = 1;
st_final_delay = 1;

input_speedup     = 1;
output_speedup    = 1;
internal_speedup  = 2.0;

warmup_periods = 3;
sim_count      = 1;

priority = none;
injection_rate_uses_flits=1;

END Configuration File: ./FT3
Number of nodes: 10648
Number of routers: 1452
Fat Tree
 k = 22 levels = 3
 each switch - total radix =  44
 # of switches = 1452
 # of channels = 42592
 # of nodes ( size of network ) = 10648


Power of two: 8192
#################################################################################
0
Class 0:
Minimum packet latency = 5
Average packet latency = 29.7536
Maximum packet latency = 98
Minimum network latency = 5
Average network latency = 29.7536
Maximum network latency = 98
Slowest packet = 2250911
Minimum flit latency = 5
Average flit latency = 29.7536
Maximum flit latency = 98
Slowest flit = 2250911
Minimum fragmentation = 0
Average fragmentation = 0
Maximum fragmentation = 0
Minimum injected packet rate = 0.84 (at node 620)
Average injected packet rate = 0.899832
Maximum injected packet rate = 0.944 (at node 346)
Minimum accepted packet rate = 0.786 (at node 1736)
Average accepted packet rate = 0.844177
Maximum accepted packet rate = 0.93 (at node 5285)
Minimum injected flit rate = 0.84 (at node 620)
Average injected flit rate = 0.899832
Maximum injected flit rate = 0.944 (at node 346)
Minimum accepted flit rate = 0.786 (at node 1736)
Average accepted flit rate = 0.844177
Maximum accepted flit rate = 0.93 (at node 5285)
Average injected packet length = 1
Average accepted packet length = 1
Total in-flight flits = 227965 (0 measured)
latency change    = 1
throughput change = 1
0
Class 0:
Minimum packet latency = 5
Average packet latency = 30.3945
Maximum packet latency = 105
Minimum network latency = 5
Average network latency = 30.3945
Maximum network latency = 105
Slowest packet = 3589450
Minimum flit latency = 5
Average flit latency = 30.3945
Maximum flit latency = 105
Slowest flit = 3589450
Minimum fragmentation = 0
Average fragmentation = 0
Maximum fragmentation = 0
Minimum injected packet rate = 0.858 (at node 776)
Average injected packet rate = 0.899927
Maximum injected packet rate = 0.933 (at node 1272)
Minimum accepted packet rate = 0.834 (at node 49)
Average accepted packet rate = 0.872061
Maximum accepted packet rate = 0.925 (at node 5285)
Minimum injected flit rate = 0.858 (at node 776)
Average injected flit rate = 0.899927
Maximum injected flit rate = 0.933 (at node 1272)
Minimum accepted flit rate = 0.834 (at node 49)
Average accepted flit rate = 0.872061
Maximum accepted flit rate = 0.925 (at node 5285)
Average injected packet length = 1
Average accepted packet length = 1
Total in-flight flits = 228272 (0 measured)
latency change    = 0.0210869
throughput change = 0.0319758
0
Class 0:
Minimum packet latency = 5
Average packet latency = 30.9422
Maximum packet latency = 110
Minimum network latency = 5
Average network latency = 30.9422
Maximum network latency = 110
Slowest packet = 7024811
Minimum flit latency = 5
Average flit latency = 30.9422
Maximum flit latency = 110
Slowest flit = 7024811
Minimum fragmentation = 0
Average fragmentation = 0
Maximum fragmentation = 0
Minimum injected packet rate = 0.844 (at node 6577)
Average injected packet rate = 0.899971
Maximum injected packet rate = 0.948 (at node 7024)
Minimum accepted packet rate = 0.842 (at node 7471)
Average accepted packet rate = 0.899927
Maximum accepted packet rate = 0.952 (at node 475)
Minimum injected flit rate = 0.844 (at node 6577)
Average injected flit rate = 0.899971
Maximum injected flit rate = 0.948 (at node 7024)
Minimum accepted flit rate = 0.842 (at node 7471)
Average accepted flit rate = 0.899927
Maximum accepted flit rate = 0.952 (at node 475)
Average injected packet length = 1
Average accepted packet length = 1
Total in-flight flits = 228453 (0 measured)
latency change    = 0.0177015
throughput change = 0.030964
Warmed up ...Time used is 1500 cycles
1
Class 0:
Minimum packet latency = 5
Average packet latency = 30.9351
Maximum packet latency = 136
Minimum network latency = 5
Average network latency = 30.9351
Maximum network latency = 136
Slowest packet = 12964948
Minimum flit latency = 5
Average flit latency = 31.0587
Maximum flit latency = 136
Slowest flit = 12964948
Minimum fragmentation = 0
Average fragmentation = 0
Maximum fragmentation = 0
Minimum injected packet rate = 0.846 (at node 4376)
Average injected packet rate = 0.900069
Maximum injected packet rate = 0.942 (at node 1341)
Minimum accepted packet rate = 0.844 (at node 785)
Average accepted packet rate = 0.899901
Maximum accepted packet rate = 0.95 (at node 692)
Minimum injected flit rate = 0.846 (at node 4376)
Average injected flit rate = 0.900069
Maximum injected flit rate = 0.942 (at node 1341)
Minimum accepted flit rate = 0.844 (at node 785)
Average accepted flit rate = 0.899901
Maximum accepted flit rate = 0.95 (at node 692)
Average injected packet length = 1
Average accepted packet length = 1
Total in-flight flits = 229140 (229140 measured)
latency change    = 0.000230303
throughput change = 2.84862e-05
1
Class 0:
Minimum packet latency = 5
Average packet latency = 30.9584
Maximum packet latency = 136
Minimum network latency = 5
Average network latency = 30.9584
Maximum network latency = 136
Slowest packet = 12964948
Minimum flit latency = 5
Average flit latency = 31.0195
Maximum flit latency = 136
Slowest flit = 12964948
Minimum fragmentation = 0
Average fragmentation = 0
Maximum fragmentation = 0
Minimum injected packet rate = 0.859 (at node 4174)
Average injected packet rate = 0.900138
Maximum injected packet rate = 0.933 (at node 7341)
Minimum accepted packet rate = 0.861 (at node 3649)
Average accepted packet rate = 0.90016
Maximum accepted packet rate = 0.932 (at node 5799)
Minimum injected flit rate = 0.859 (at node 4174)
Average injected flit rate = 0.900138
Maximum injected flit rate = 0.933 (at node 7341)
Minimum accepted flit rate = 0.861 (at node 3649)
Average accepted flit rate = 0.90016
Maximum accepted flit rate = 0.932 (at node 5799)
Average injected packet length = 1
Average accepted packet length = 1
Total in-flight flits = 228269 (228269 measured)
latency change    = 0.000752805
throughput change = 0.000287628
1
Class 0:
Minimum packet latency = 5
Average packet latency = 30.972
Maximum packet latency = 136
Minimum network latency = 5
Average network latency = 30.972
Maximum network latency = 136
Slowest packet = 12964948
Minimum flit latency = 5
Average flit latency = 31.0125
Maximum flit latency = 136
Slowest flit = 12964948
Minimum fragmentation = 0
Average fragmentation = 0
Maximum fragmentation = 0
Minimum injected packet rate = 0.872 (at node 4174)
Average injected packet rate = 0.900083
Maximum injected packet rate = 0.931333 (at node 2085)
Minimum accepted packet rate = 0.870667 (at node 1410)
Average accepted packet rate = 0.900077
Maximum accepted packet rate = 0.928 (at node 5250)
Minimum injected flit rate = 0.872 (at node 4174)
Average injected flit rate = 0.900083
Maximum injected flit rate = 0.931333 (at node 2085)
Minimum accepted flit rate = 0.870667 (at node 1410)
Average accepted flit rate = 0.900077
Maximum accepted flit rate = 0.928 (at node 5250)
Average injected packet length = 1
Average accepted packet length = 1
Total in-flight flits = 228528 (228528 measured)
latency change    = 0.000439442
throughput change = 9.18161e-05
Draining all recorded packets ...
Draining remaining packets ...
Time taken is 3163 cycles
====== Traffic class 0 ======
Overall minimum packet latency = 5 (1 samples)
Overall average packet latency = 31.0133 (1 samples)
Overall maximum packet latency = 136 (1 samples)
Overall minimum network latency = 5 (1 samples)
Overall average network latency = 31.0133 (1 samples)
Overall maximum network latency = 136 (1 samples)
Overall minimum flit latency = 5 (1 samples)
Overall average flit latency = 31.0419 (1 samples)
Overall maximum flit latency = 136 (1 samples)
Overall minimum fragmentation = 0 (1 samples)
Overall average fragmentation = 0 (1 samples)
Overall maximum fragmentation = 0 (1 samples)
Overall minimum injected packet rate = 0.872 (1 samples)
Overall average injected packet rate = 0.900083 (1 samples)
Overall maximum injected packet rate = 0.931333 (1 samples)
Overall minimum accepted packet rate = 0.870667 (1 samples)
Overall average accepted packet rate = 0.900077 (1 samples)
Overall maximum accepted packet rate = 0.928 (1 samples)
Overall minimum injected flit rate = 0.872 (1 samples)
Overall average injected flit rate = 0.900083 (1 samples)
Overall maximum injected flit rate = 0.931333 (1 samples)
Overall minimum accepted flit rate = 0.870667 (1 samples)
Overall average accepted flit rate = 0.900077 (1 samples)
Overall maximum accepted flit rate = 0.928 (1 samples)
Overall average injected packet size = 1 (1 samples)
Overall average accepted packet size = 1 (1 samples)
Overall average hops = 4.84862 (1 samples)
Total run time 3531
