BEGIN Configuration File: ./T5D
injection_rate = 0.3;
traffic = uniform;
use_size_power_of_two = no;
routing_function = dim_order;
vc_buf_size = 16;
topology = mesh;
use_noc_latency = 0;
hold_switch_for_packet=0;

k = 14;
n = 2;

packet_size  = 1;
num_vcs      = 14;
vc_allocator = separable_input_first; 
sw_allocator = separable_input_first;

alloc_iters   = 1;
sample_period = 500;

wait_for_tail_credit = 0;
use_read_write       = 0;

credit_delay   = 2;
routing_delay  = 0;
vc_alloc_delay = 1;
sw_alloc_delay = 1;
st_final_delay = 1;

input_speedup     = 1;
output_speedup    = 1;
internal_speedup  = 2.0;

warmup_periods = 3;
sim_count      = 1;

priority = none;
injection_rate_uses_flits=1;

END Configuration File: ./T5D
Number of nodes: 196
Number of routers: 196
0
Class 0:
Minimum packet latency = 5
Average packet latency = 52.3033
Maximum packet latency = 185
Minimum network latency = 5
Average network latency = 52.3033
Maximum network latency = 185
Slowest packet = 16356
Minimum flit latency = 5
Average flit latency = 52.3033
Maximum flit latency = 185
Slowest flit = 16356
Minimum fragmentation = 0
Average fragmentation = 0
Maximum fragmentation = 0
Minimum injected packet rate = 0.244 (at node 100)
Average injected packet rate = 0.299061
Maximum injected packet rate = 0.352 (at node 14)
Minimum accepted packet rate = 0.198 (at node 141)
Average accepted packet rate = 0.257612
Maximum accepted packet rate = 0.324 (at node 115)
Minimum injected flit rate = 0.244 (at node 100)
Average injected flit rate = 0.299061
Maximum injected flit rate = 0.352 (at node 14)
Minimum accepted flit rate = 0.198 (at node 141)
Average accepted flit rate = 0.257612
Maximum accepted flit rate = 0.324 (at node 115)
Average injected packet length = 1
Average accepted packet length = 1
Total in-flight flits = 4062 (0 measured)
latency change    = 1
throughput change = 1
0
Class 0:
Minimum packet latency = 5
Average packet latency = 66.1844
Maximum packet latency = 284
Minimum network latency = 5
Average network latency = 66.1844
Maximum network latency = 284
Slowest packet = 38550
Minimum flit latency = 5
Average flit latency = 66.1844
Maximum flit latency = 284
Slowest flit = 38550
Minimum fragmentation = 0
Average fragmentation = 0
Maximum fragmentation = 0
Minimum injected packet rate = 0.262 (at node 1)
Average injected packet rate = 0.298903
Maximum injected packet rate = 0.334 (at node 168)
Minimum accepted packet rate = 0.225 (at node 10)
Average accepted packet rate = 0.271546
Maximum accepted packet rate = 0.314 (at node 137)
Minimum injected flit rate = 0.262 (at node 1)
Average injected flit rate = 0.298903
Maximum injected flit rate = 0.334 (at node 168)
Minimum accepted flit rate = 0.225 (at node 10)
Average accepted flit rate = 0.271546
Maximum accepted flit rate = 0.314 (at node 137)
Average injected packet length = 1
Average accepted packet length = 1
Total in-flight flits = 5362 (0 measured)
latency change    = 0.209734
throughput change = 0.0513124
0
Class 0:
Minimum packet latency = 5
Average packet latency = 99.452
Maximum packet latency = 328
Minimum network latency = 5
Average network latency = 99.452
Maximum network latency = 328
Slowest packet = 52767
Minimum flit latency = 5
Average flit latency = 99.452
Maximum flit latency = 328
Slowest flit = 52767
Minimum fragmentation = 0
Average fragmentation = 0
Maximum fragmentation = 0
Minimum injected packet rate = 0.252 (at node 169)
Average injected packet rate = 0.297439
Maximum injected packet rate = 0.366 (at node 15)
Minimum accepted packet rate = 0.21 (at node 81)
Average accepted packet rate = 0.287684
Maximum accepted packet rate = 0.35 (at node 123)
Minimum injected flit rate = 0.252 (at node 169)
Average injected flit rate = 0.297439
Maximum injected flit rate = 0.366 (at node 15)
Minimum accepted flit rate = 0.21 (at node 81)
Average accepted flit rate = 0.287684
Maximum accepted flit rate = 0.35 (at node 123)
Average injected packet length = 1
Average accepted packet length = 1
Total in-flight flits = 6318 (0 measured)
latency change    = 0.334509
throughput change = 0.0560955
Warmed up ...Time used is 1500 cycles
1
Class 0:
Minimum packet latency = 5
Average packet latency = 104.99
Maximum packet latency = 390
Minimum network latency = 5
Average network latency = 104.99
Maximum network latency = 390
Slowest packet = 90270
Minimum flit latency = 5
Average flit latency = 116.099
Maximum flit latency = 390
Slowest flit = 90270
Minimum fragmentation = 0
Average fragmentation = 0
Maximum fragmentation = 0
Minimum injected packet rate = 0.236 (at node 78)
Average injected packet rate = 0.299837
Maximum injected packet rate = 0.36 (at node 37)
Minimum accepted packet rate = 0.226 (at node 152)
Average accepted packet rate = 0.289867
Maximum accepted packet rate = 0.358 (at node 122)
Minimum injected flit rate = 0.236 (at node 78)
Average injected flit rate = 0.299837
Maximum injected flit rate = 0.36 (at node 37)
Minimum accepted flit rate = 0.226 (at node 152)
Average accepted flit rate = 0.289867
Maximum accepted flit rate = 0.358 (at node 122)
Average injected packet length = 1
Average accepted packet length = 1
Total in-flight flits = 7295 (7295 measured)
latency change    = 0.0527512
throughput change = 0.00753335
1
Class 0:
Minimum packet latency = 5
Average packet latency = 119.807
Maximum packet latency = 492
Minimum network latency = 5
Average network latency = 119.807
Maximum network latency = 492
Slowest packet = 116944
Minimum flit latency = 5
Average flit latency = 123.725
Maximum flit latency = 492
Slowest flit = 116944
Minimum fragmentation = 0
Average fragmentation = 0
Maximum fragmentation = 0
Minimum injected packet rate = 0.261 (at node 150)
Average injected packet rate = 0.300413
Maximum injected packet rate = 0.346 (at node 136)
Minimum accepted packet rate = 0.23 (at node 145)
Average accepted packet rate = 0.289036
Maximum accepted packet rate = 0.334 (at node 26)
Minimum injected flit rate = 0.261 (at node 150)
Average injected flit rate = 0.300413
Maximum injected flit rate = 0.346 (at node 136)
Minimum accepted flit rate = 0.23 (at node 145)
Average accepted flit rate = 0.289036
Maximum accepted flit rate = 0.334 (at node 26)
Average injected packet length = 1
Average accepted packet length = 1
Total in-flight flits = 8548 (8548 measured)
latency change    = 0.123671
throughput change = 0.00287727
1
Class 0:
Minimum packet latency = 5
Average packet latency = 131.682
Maximum packet latency = 572
Minimum network latency = 5
Average network latency = 131.682
Maximum network latency = 572
Slowest packet = 141169
Minimum flit latency = 5
Average flit latency = 133.414
Maximum flit latency = 572
Slowest flit = 141169
Minimum fragmentation = 0
Average fragmentation = 0
Maximum fragmentation = 0
Minimum injected packet rate = 0.268667 (at node 109)
Average injected packet rate = 0.300663
Maximum injected packet rate = 0.338667 (at node 37)
Minimum accepted packet rate = 0.252667 (at node 145)
Average accepted packet rate = 0.288534
Maximum accepted packet rate = 0.314 (at node 26)
Minimum injected flit rate = 0.268667 (at node 109)
Average injected flit rate = 0.300663
Maximum injected flit rate = 0.338667 (at node 37)
Minimum accepted flit rate = 0.252667 (at node 145)
Average accepted flit rate = 0.288534
Maximum accepted flit rate = 0.314 (at node 26)
Average injected packet length = 1
Average accepted packet length = 1
Total in-flight flits = 9884 (9884 measured)
latency change    = 0.0901819
throughput change = 0.00173879
1
Class 0:
Minimum packet latency = 5
Average packet latency = 142.887
Maximum packet latency = 588
Minimum network latency = 5
Average network latency = 142.887
Maximum network latency = 588
Slowest packet = 158078
Minimum flit latency = 5
Average flit latency = 143.561
Maximum flit latency = 588
Slowest flit = 158078
Minimum fragmentation = 0
Average fragmentation = 0
Maximum fragmentation = 0
Minimum injected packet rate = 0.271 (at node 109)
Average injected packet rate = 0.30087
Maximum injected packet rate = 0.3325 (at node 37)
Minimum accepted packet rate = 0.2555 (at node 180)
Average accepted packet rate = 0.288268
Maximum accepted packet rate = 0.313 (at node 159)
Minimum injected flit rate = 0.271 (at node 109)
Average injected flit rate = 0.30087
Maximum injected flit rate = 0.3325 (at node 37)
Minimum accepted flit rate = 0.2555 (at node 180)
Average accepted flit rate = 0.288268
Maximum accepted flit rate = 0.313 (at node 159)
Average injected packet length = 1
Average accepted packet length = 1
Total in-flight flits = 11258 (11258 measured)
latency change    = 0.0784164
throughput change = 0.000923296
1
Class 0:
Minimum packet latency = 5
Average packet latency = 153.957
Maximum packet latency = 669
Minimum network latency = 5
Average network latency = 153.957
Maximum network latency = 669
Slowest packet = 193694
Minimum flit latency = 5
Average flit latency = 154.001
Maximum flit latency = 669
Slowest flit = 193694
Minimum fragmentation = 0
Average fragmentation = 0
Maximum fragmentation = 0
Minimum injected packet rate = 0.27 (at node 109)
Average injected packet rate = 0.300312
Maximum injected packet rate = 0.3292 (at node 37)
Minimum accepted packet rate = 0.2572 (at node 180)
Average accepted packet rate = 0.28801
Maximum accepted packet rate = 0.3156 (at node 108)
Minimum injected flit rate = 0.27 (at node 109)
Average injected flit rate = 0.300312
Maximum injected flit rate = 0.3292 (at node 37)
Minimum accepted flit rate = 0.2572 (at node 180)
Average accepted flit rate = 0.28801
Maximum accepted flit rate = 0.3156 (at node 108)
Average injected packet length = 1
Average accepted packet length = 1
Total in-flight flits = 12346 (12346 measured)
latency change    = 0.071902
throughput change = 0.000894597
1
Class 0:
Minimum packet latency = 5
Average packet latency = 164.411
Maximum packet latency = 684
Minimum network latency = 5
Average network latency = 164.411
Maximum network latency = 684
Slowest packet = 219825
Minimum flit latency = 5
Average flit latency = 164.057
Maximum flit latency = 684
Slowest flit = 219825
Minimum fragmentation = 0
Average fragmentation = 0
Maximum fragmentation = 0
Minimum injected packet rate = 0.275667 (at node 109)
Average injected packet rate = 0.300107
Maximum injected packet rate = 0.324333 (at node 37)
Minimum accepted packet rate = 0.260333 (at node 91)
Average accepted packet rate = 0.288163
Maximum accepted packet rate = 0.313667 (at node 108)
Minimum injected flit rate = 0.275667 (at node 109)
Average injected flit rate = 0.300107
Maximum injected flit rate = 0.324333 (at node 37)
Minimum accepted flit rate = 0.260333 (at node 91)
Average accepted flit rate = 0.288163
Maximum accepted flit rate = 0.313667 (at node 108)
Average injected packet length = 1
Average accepted packet length = 1
Total in-flight flits = 13341 (13341 measured)
latency change    = 0.0635825
throughput change = 0.000531161
1
Class 0:
Minimum packet latency = 5
Average packet latency = 174.476
Maximum packet latency = 781
Minimum network latency = 5
Average network latency = 174.476
Maximum network latency = 781
Slowest packet = 246649
Minimum flit latency = 5
Average flit latency = 173.852
Maximum flit latency = 781
Slowest flit = 246649
Minimum fragmentation = 0
Average fragmentation = 0
Maximum fragmentation = 0
Minimum injected packet rate = 0.276 (at node 109)
Average injected packet rate = 0.299827
Maximum injected packet rate = 0.323429 (at node 37)
Minimum accepted packet rate = 0.262857 (at node 91)
Average accepted packet rate = 0.288369
Maximum accepted packet rate = 0.310571 (at node 156)
Minimum injected flit rate = 0.276 (at node 109)
Average injected flit rate = 0.299827
Maximum injected flit rate = 0.323429 (at node 37)
Minimum accepted flit rate = 0.262857 (at node 91)
Average accepted flit rate = 0.288369
Maximum accepted flit rate = 0.310571 (at node 156)
Average injected packet length = 1
Average accepted packet length = 1
Total in-flight flits = 14178 (14178 measured)
latency change    = 0.05769
throughput change = 0.000712766
Draining all recorded packets ...
Draining remaining packets ...
Time taken is 6252 cycles
====== Traffic class 0 ======
Overall minimum packet latency = 5 (1 samples)
Overall average packet latency = 187.263 (1 samples)
Overall maximum packet latency = 816 (1 samples)
Overall minimum network latency = 5 (1 samples)
Overall average network latency = 187.263 (1 samples)
Overall maximum network latency = 816 (1 samples)
Overall minimum flit latency = 5 (1 samples)
Overall average flit latency = 200.02 (1 samples)
Overall maximum flit latency = 880 (1 samples)
Overall minimum fragmentation = 0 (1 samples)
Overall average fragmentation = 0 (1 samples)
Overall maximum fragmentation = 0 (1 samples)
Overall minimum injected packet rate = 0.276 (1 samples)
Overall average injected packet rate = 0.299827 (1 samples)
Overall maximum injected packet rate = 0.323429 (1 samples)
Overall minimum accepted packet rate = 0.262857 (1 samples)
Overall average accepted packet rate = 0.288369 (1 samples)
Overall maximum accepted packet rate = 0.310571 (1 samples)
Overall minimum injected flit rate = 0.276 (1 samples)
Overall average injected flit rate = 0.299827 (1 samples)
Overall maximum injected flit rate = 0.323429 (1 samples)
Overall minimum accepted flit rate = 0.262857 (1 samples)
Overall average accepted flit rate = 0.288369 (1 samples)
Overall maximum accepted flit rate = 0.310571 (1 samples)
Overall average injected packet size = 1 (1 samples)
Overall average accepted packet size = 1 (1 samples)
Overall average hops = 10.2973 (1 samples)
Total run time 112.444
