BEGIN Configuration File: ./T5D
injection_rate = 0.2;
traffic = uniform;
use_size_power_of_two = no;
routing_function = dim_order;
vc_buf_size = 16;
topology = mesh;
use_noc_latency = 0;
hold_switch_for_packet=0;

k = 14;
n = 2;

packet_size  = 1;
num_vcs      = 14;
vc_allocator = separable_input_first; 
sw_allocator = separable_input_first;

alloc_iters   = 1;
sample_period = 500;

wait_for_tail_credit = 0;
use_read_write       = 0;

credit_delay   = 2;
routing_delay  = 0;
vc_alloc_delay = 1;
sw_alloc_delay = 1;
st_final_delay = 1;

input_speedup     = 1;
output_speedup    = 1;
internal_speedup  = 2.0;

warmup_periods = 3;
sim_count      = 1;

priority = none;
injection_rate_uses_flits=1;

END Configuration File: ./T5D
Number of nodes: 196
Number of routers: 196
0
Class 0:
Minimum packet latency = 5
Average packet latency = 34.7987
Maximum packet latency = 94
Minimum network latency = 5
Average network latency = 34.7987
Maximum network latency = 94
Slowest packet = 2330
Minimum flit latency = 5
Average flit latency = 34.7987
Maximum flit latency = 94
Slowest flit = 2330
Minimum fragmentation = 0
Average fragmentation = 0
Maximum fragmentation = 0
Minimum injected packet rate = 0.156 (at node 68)
Average injected packet rate = 0.198255
Maximum injected packet rate = 0.24 (at node 164)
Minimum accepted packet rate = 0.134 (at node 135)
Average accepted packet rate = 0.183582
Maximum accepted packet rate = 0.25 (at node 115)
Minimum injected flit rate = 0.156 (at node 68)
Average injected flit rate = 0.198255
Maximum injected flit rate = 0.24 (at node 164)
Minimum accepted flit rate = 0.134 (at node 135)
Average accepted flit rate = 0.183582
Maximum accepted flit rate = 0.25 (at node 115)
Average injected packet length = 1
Average accepted packet length = 1
Total in-flight flits = 1438 (0 measured)
latency change    = 1
throughput change = 1
0
Class 0:
Minimum packet latency = 5
Average packet latency = 35.1633
Maximum packet latency = 96
Minimum network latency = 5
Average network latency = 35.1633
Maximum network latency = 96
Slowest packet = 29993
Minimum flit latency = 5
Average flit latency = 35.1633
Maximum flit latency = 96
Slowest flit = 29993
Minimum fragmentation = 0
Average fragmentation = 0
Maximum fragmentation = 0
Minimum injected packet rate = 0.171 (at node 1)
Average injected packet rate = 0.198429
Maximum injected packet rate = 0.235 (at node 50)
Minimum accepted packet rate = 0.156 (at node 160)
Average accepted packet rate = 0.191653
Maximum accepted packet rate = 0.229 (at node 137)
Minimum injected flit rate = 0.171 (at node 1)
Average injected flit rate = 0.198429
Maximum injected flit rate = 0.235 (at node 50)
Minimum accepted flit rate = 0.156 (at node 160)
Average accepted flit rate = 0.191653
Maximum accepted flit rate = 0.229 (at node 137)
Average injected packet length = 1
Average accepted packet length = 1
Total in-flight flits = 1328 (0 measured)
latency change    = 0.0103684
throughput change = 0.0421148
0
Class 0:
Minimum packet latency = 5
Average packet latency = 35.5372
Maximum packet latency = 95
Minimum network latency = 5
Average network latency = 35.5372
Maximum network latency = 95
Slowest packet = 40986
Minimum flit latency = 5
Average flit latency = 35.5372
Maximum flit latency = 95
Slowest flit = 40986
Minimum fragmentation = 0
Average fragmentation = 0
Maximum fragmentation = 0
Minimum injected packet rate = 0.152 (at node 169)
Average injected packet rate = 0.200276
Maximum injected packet rate = 0.25 (at node 106)
Minimum accepted packet rate = 0.132 (at node 81)
Average accepted packet rate = 0.199663
Maximum accepted packet rate = 0.258 (at node 105)
Minimum injected flit rate = 0.152 (at node 169)
Average injected flit rate = 0.200276
Maximum injected flit rate = 0.25 (at node 106)
Minimum accepted flit rate = 0.132 (at node 81)
Average accepted flit rate = 0.199663
Maximum accepted flit rate = 0.258 (at node 105)
Average injected packet length = 1
Average accepted packet length = 1
Total in-flight flits = 1388 (0 measured)
latency change    = 0.0105216
throughput change = 0.0401186
Warmed up ...Time used is 1500 cycles
1
Class 0:
Minimum packet latency = 5
Average packet latency = 34.8457
Maximum packet latency = 95
Minimum network latency = 5
Average network latency = 34.8457
Maximum network latency = 95
Slowest packet = 71795
Minimum flit latency = 5
Average flit latency = 35.3887
Maximum flit latency = 95
Slowest flit = 71795
Minimum fragmentation = 0
Average fragmentation = 0
Maximum fragmentation = 0
Minimum injected packet rate = 0.16 (at node 63)
Average injected packet rate = 0.200408
Maximum injected packet rate = 0.248 (at node 123)
Minimum accepted packet rate = 0.134 (at node 81)
Average accepted packet rate = 0.200296
Maximum accepted packet rate = 0.258 (at node 88)
Minimum injected flit rate = 0.16 (at node 63)
Average injected flit rate = 0.200408
Maximum injected flit rate = 0.248 (at node 123)
Minimum accepted flit rate = 0.134 (at node 81)
Average accepted flit rate = 0.200296
Maximum accepted flit rate = 0.258 (at node 88)
Average injected packet length = 1
Average accepted packet length = 1
Total in-flight flits = 1399 (1399 measured)
latency change    = 0.0198462
throughput change = 0.00315859
1
Class 0:
Minimum packet latency = 5
Average packet latency = 35.1009
Maximum packet latency = 100
Minimum network latency = 5
Average network latency = 35.1009
Maximum network latency = 100
Slowest packet = 86169
Minimum flit latency = 5
Average flit latency = 35.3642
Maximum flit latency = 100
Slowest flit = 86169
Minimum fragmentation = 0
Average fragmentation = 0
Maximum fragmentation = 0
Minimum injected packet rate = 0.17 (at node 48)
Average injected packet rate = 0.19974
Maximum injected packet rate = 0.238 (at node 136)
Minimum accepted packet rate = 0.164 (at node 108)
Average accepted packet rate = 0.199648
Maximum accepted packet rate = 0.237 (at node 60)
Minimum injected flit rate = 0.17 (at node 48)
Average injected flit rate = 0.19974
Maximum injected flit rate = 0.238 (at node 136)
Minimum accepted flit rate = 0.164 (at node 108)
Average accepted flit rate = 0.199648
Maximum accepted flit rate = 0.237 (at node 60)
Average injected packet length = 1
Average accepted packet length = 1
Total in-flight flits = 1406 (1406 measured)
latency change    = 0.00727016
throughput change = 0.00324551
1
Class 0:
Minimum packet latency = 5
Average packet latency = 35.2181
Maximum packet latency = 100
Minimum network latency = 5
Average network latency = 35.2181
Maximum network latency = 100
Slowest packet = 86169
Minimum flit latency = 5
Average flit latency = 35.3904
Maximum flit latency = 100
Slowest flit = 86169
Minimum fragmentation = 0
Average fragmentation = 0
Maximum fragmentation = 0
Minimum injected packet rate = 0.176 (at node 63)
Average injected packet rate = 0.20031
Maximum injected packet rate = 0.23 (at node 37)
Minimum accepted packet rate = 0.172 (at node 145)
Average accepted packet rate = 0.200252
Maximum accepted packet rate = 0.237333 (at node 77)
Minimum injected flit rate = 0.176 (at node 63)
Average injected flit rate = 0.20031
Maximum injected flit rate = 0.23 (at node 37)
Minimum accepted flit rate = 0.172 (at node 145)
Average accepted flit rate = 0.200252
Maximum accepted flit rate = 0.237333 (at node 77)
Average injected packet length = 1
Average accepted packet length = 1
Total in-flight flits = 1405 (1405 measured)
latency change    = 0.00332894
throughput change = 0.00301491
Draining all recorded packets ...
Draining remaining packets ...
Time taken is 3160 cycles
====== Traffic class 0 ======
Overall minimum packet latency = 5 (1 samples)
Overall average packet latency = 35.3934 (1 samples)
Overall maximum packet latency = 100 (1 samples)
Overall minimum network latency = 5 (1 samples)
Overall average network latency = 35.3934 (1 samples)
Overall maximum network latency = 100 (1 samples)
Overall minimum flit latency = 5 (1 samples)
Overall average flit latency = 35.5496 (1 samples)
Overall maximum flit latency = 100 (1 samples)
Overall minimum fragmentation = 0 (1 samples)
Overall average fragmentation = 0 (1 samples)
Overall maximum fragmentation = 0 (1 samples)
Overall minimum injected packet rate = 0.176 (1 samples)
Overall average injected packet rate = 0.20031 (1 samples)
Overall maximum injected packet rate = 0.23 (1 samples)
Overall minimum accepted packet rate = 0.172 (1 samples)
Overall average accepted packet rate = 0.200252 (1 samples)
Overall maximum accepted packet rate = 0.237333 (1 samples)
Overall minimum injected flit rate = 0.176 (1 samples)
Overall average injected flit rate = 0.20031 (1 samples)
Overall maximum injected flit rate = 0.23 (1 samples)
Overall minimum accepted flit rate = 0.172 (1 samples)
Overall average accepted flit rate = 0.200252 (1 samples)
Overall maximum accepted flit rate = 0.237333 (1 samples)
Overall average injected packet size = 1 (1 samples)
Overall average accepted packet size = 1 (1 samples)
Overall average hops = 10.2897 (1 samples)
Total run time 41.9426
