BEGIN Configuration File: ./FBF-3.conf
injection_rate = 0.01;
traffic = uniform;
routing_function = ran_min;
vc_buf_size = 16;
topology = flatfly;
use_noc_latency = 0;
hold_switch_for_packet=1;

c = 9;
k = 4;
n = 3;

x  = 4;
y  = 4;
xr = 3;
yr = 3;

packet_size  = 1;
num_vcs      = 2;
vc_allocator = separable_input_first; 
sw_allocator = separable_input_first;

alloc_iters   = 1;
sample_period = 500;

wait_for_tail_credit = 0;
use_read_write       = 0;

credit_delay   = 2;
routing_delay  = 0;
vc_alloc_delay = 1;
sw_alloc_delay = 1;
st_final_delay = 1;

input_speedup     = 1;
output_speedup    = 1;
internal_speedup  = 2.0;

warmup_periods = 3;
sim_count      = 1;

priority = none;
injection_rate_uses_flits=1;

END Configuration File: ./FBF-3.conf
Number of nodes: 576
Number of routers: 64
 Flat Bufferfly 
 k = 4 n = 3 c = 9
 each switch - total radix =  18
 # of switches = 64
 # of channels = 576
 # of nodes ( size of network ) = 576
0
Class 0:
Minimum packet latency = 5
Average packet latency = 11.7167
Maximum packet latency = 15
Minimum network latency = 5
Average network latency = 11.7167
Maximum network latency = 15
Slowest packet = 39
Minimum flit latency = 5
Average flit latency = 11.7167
Maximum flit latency = 15
Slowest flit = 39
Minimum fragmentation = 0
Average fragmentation = 0
Maximum fragmentation = 0
Minimum injected packet rate = 0 (at node 218)
Average injected packet rate = 0.00992014
Maximum injected packet rate = 0.026 (at node 1)
Minimum accepted packet rate = 0 (at node 127)
Average accepted packet rate = 0.00970833
Maximum accepted packet rate = 0.024 (at node 214)
Minimum injected flit rate = 0 (at node 218)
Average injected flit rate = 0.00992014
Maximum injected flit rate = 0.026 (at node 1)
Minimum accepted flit rate = 0 (at node 127)
Average accepted flit rate = 0.00970833
Maximum accepted flit rate = 0.024 (at node 214)
Average injected packet length = 1
Average accepted packet length = 1
Total in-flight flits = 61 (0 measured)
latency change    = 1
throughput change = 1
0
Class 0:
Minimum packet latency = 5
Average packet latency = 11.7373
Maximum packet latency = 15
Minimum network latency = 5
Average network latency = 11.7373
Maximum network latency = 15
Slowest packet = 39
Minimum flit latency = 5
Average flit latency = 11.7373
Maximum flit latency = 15
Slowest flit = 39
Minimum fragmentation = 0
Average fragmentation = 0
Maximum fragmentation = 0
Minimum injected packet rate = 0.002 (at node 256)
Average injected packet rate = 0.00985069
Maximum injected packet rate = 0.02 (at node 229)
Minimum accepted packet rate = 0.002 (at node 10)
Average accepted packet rate = 0.00973437
Maximum accepted packet rate = 0.019 (at node 14)
Minimum injected flit rate = 0.002 (at node 256)
Average injected flit rate = 0.00985069
Maximum injected flit rate = 0.02 (at node 229)
Minimum accepted flit rate = 0.002 (at node 10)
Average accepted flit rate = 0.00973437
Maximum accepted flit rate = 0.019 (at node 14)
Average injected packet length = 1
Average accepted packet length = 1
Total in-flight flits = 67 (0 measured)
latency change    = 0.00175121
throughput change = 0.00267523
0
Class 0:
Minimum packet latency = 5
Average packet latency = 11.7423
Maximum packet latency = 15
Minimum network latency = 5
Average network latency = 11.7423
Maximum network latency = 15
Slowest packet = 5654
Minimum flit latency = 5
Average flit latency = 11.7423
Maximum flit latency = 15
Slowest flit = 5654
Minimum fragmentation = 0
Average fragmentation = 0
Maximum fragmentation = 0
Minimum injected packet rate = 0 (at node 560)
Average injected packet rate = 0.0102049
Maximum injected packet rate = 0.026 (at node 397)
Minimum accepted packet rate = 0 (at node 163)
Average accepted packet rate = 0.0102257
Maximum accepted packet rate = 0.03 (at node 483)
Minimum injected flit rate = 0 (at node 560)
Average injected flit rate = 0.0102049
Maximum injected flit rate = 0.026 (at node 397)
Minimum accepted flit rate = 0 (at node 163)
Average accepted flit rate = 0.0102257
Maximum accepted flit rate = 0.03 (at node 483)
Average injected packet length = 1
Average accepted packet length = 1
Total in-flight flits = 61 (0 measured)
latency change    = 0.000424311
throughput change = 0.0480475
Warmed up ...Time used is 1500 cycles
1
Class 0:
Minimum packet latency = 5
Average packet latency = 11.7727
Maximum packet latency = 15
Minimum network latency = 5
Average network latency = 11.7727
Maximum network latency = 15
Slowest packet = 8666
Minimum flit latency = 5
Average flit latency = 11.7843
Maximum flit latency = 15
Slowest flit = 8561
Minimum fragmentation = 0
Average fragmentation = 0
Maximum fragmentation = 0
Minimum injected packet rate = 0 (at node 8)
Average injected packet rate = 0.00984375
Maximum injected packet rate = 0.026 (at node 185)
Minimum accepted packet rate = 0 (at node 388)
Average accepted packet rate = 0.00985069
Maximum accepted packet rate = 0.024 (at node 321)
Minimum injected flit rate = 0 (at node 8)
Average injected flit rate = 0.00984375
Maximum injected flit rate = 0.026 (at node 185)
Minimum accepted flit rate = 0 (at node 388)
Average accepted flit rate = 0.00985069
Maximum accepted flit rate = 0.024 (at node 321)
Average injected packet length = 1
Average accepted packet length = 1
Total in-flight flits = 59 (59 measured)
latency change    = 0.0025839
throughput change = 0.0380684
1
Class 0:
Minimum packet latency = 5
Average packet latency = 11.7511
Maximum packet latency = 16
Minimum network latency = 5
Average network latency = 11.7511
Maximum network latency = 16
Slowest packet = 13736
Minimum flit latency = 5
Average flit latency = 11.757
Maximum flit latency = 16
Slowest flit = 13736
Minimum fragmentation = 0
Average fragmentation = 0
Maximum fragmentation = 0
Minimum injected packet rate = 0.001 (at node 428)
Average injected packet rate = 0.00993576
Maximum injected packet rate = 0.021 (at node 80)
Minimum accepted packet rate = 0.003 (at node 84)
Average accepted packet rate = 0.0099184
Maximum accepted packet rate = 0.021 (at node 321)
Minimum injected flit rate = 0.001 (at node 428)
Average injected flit rate = 0.00993576
Maximum injected flit rate = 0.021 (at node 80)
Minimum accepted flit rate = 0.003 (at node 84)
Average accepted flit rate = 0.0099184
Maximum accepted flit rate = 0.021 (at node 321)
Average injected packet length = 1
Average accepted packet length = 1
Total in-flight flits = 71 (71 measured)
latency change    = 0.00184094
throughput change = 0.00682654
1
Class 0:
Minimum packet latency = 5
Average packet latency = 11.7698
Maximum packet latency = 16
Minimum network latency = 5
Average network latency = 11.7698
Maximum network latency = 16
Slowest packet = 13736
Minimum flit latency = 5
Average flit latency = 11.7736
Maximum flit latency = 16
Slowest flit = 13736
Minimum fragmentation = 0
Average fragmentation = 0
Maximum fragmentation = 0
Minimum injected packet rate = 0.00333333 (at node 145)
Average injected packet rate = 0.00996065
Maximum injected packet rate = 0.0186667 (at node 80)
Minimum accepted packet rate = 0.00466667 (at node 8)
Average accepted packet rate = 0.00995833
Maximum accepted packet rate = 0.018 (at node 74)
Minimum injected flit rate = 0.00333333 (at node 145)
Average injected flit rate = 0.00996065
Maximum injected flit rate = 0.0186667 (at node 80)
Minimum accepted flit rate = 0.00466667 (at node 8)
Average accepted flit rate = 0.00995833
Maximum accepted flit rate = 0.018 (at node 74)
Average injected packet length = 1
Average accepted packet length = 1
Total in-flight flits = 63 (63 measured)
latency change    = 0.00158809
throughput change = 0.00400976
Draining all recorded packets ...
Draining remaining packets ...
Time taken is 3032 cycles
====== Traffic class 0 ======
Overall minimum packet latency = 5 (1 samples)
Overall average packet latency = 11.775 (1 samples)
Overall maximum packet latency = 16 (1 samples)
Overall minimum network latency = 5 (1 samples)
Overall average network latency = 11.775 (1 samples)
Overall maximum network latency = 16 (1 samples)
Overall minimum flit latency = 5 (1 samples)
Overall average flit latency = 11.7776 (1 samples)
Overall maximum flit latency = 16 (1 samples)
Overall minimum fragmentation = 0 (1 samples)
Overall average fragmentation = 0 (1 samples)
Overall maximum fragmentation = 0 (1 samples)
Overall minimum injected packet rate = 0.00333333 (1 samples)
Overall average injected packet rate = 0.00996065 (1 samples)
Overall maximum injected packet rate = 0.0186667 (1 samples)
Overall minimum accepted packet rate = 0.00466667 (1 samples)
Overall average accepted packet rate = 0.00995833 (1 samples)
Overall maximum accepted packet rate = 0.018 (1 samples)
Overall minimum injected flit rate = 0.00333333 (1 samples)
Overall average injected flit rate = 0.00996065 (1 samples)
Overall maximum injected flit rate = 0.0186667 (1 samples)
Overall minimum accepted flit rate = 0.00466667 (1 samples)
Overall average accepted flit rate = 0.00995833 (1 samples)
Overall maximum accepted flit rate = 0.018 (1 samples)
Overall average injected packet size = 1 (1 samples)
Overall average accepted packet size = 1 (1 samples)
Overall average hops = 3.24971 (1 samples)
Total run time 3.2707
