BEGIN Configuration File: ./RAND.conf
injection_rate = 0.01;
traffic = uniform;
use_size_power_of_two = no;
routing_function = min;
vc_buf_size = 16;
network_file = RAND.50.7.3.bsconf;
load_routing_file = no;
routing_table_file = RAND.50.7.3.bsconf;
topology = anynet;
//use_noc_latency = 0;
//hold_switch_for_packet=0;

k = 1;

packet_size  = 1;
num_vcs      = 4;
vc_allocator = separable_input_first; 
sw_allocator = separable_input_first;

alloc_iters   = 1;
sample_period = 500;

wait_for_tail_credit = 0;
use_read_write       = 0;

credit_delay   = 2;
routing_delay  = 0;
vc_alloc_delay = 1;
sw_alloc_delay = 1;
st_final_delay = 1;

input_speedup     = 1;
output_speedup    = 1;
internal_speedup  = 2.0;

warmup_periods = 3;
sim_count      = 1;

priority = none;
injection_rate_uses_flits=1;
injection_rate = 0.01;
traffic = uniform;
use_size_power_of_two = no;
routing_function = min;
vc_buf_size = 16;
network_file = RAND.98.11.5.bsconf;
load_routing_file = no;
routing_table_file = RAND.98.11.5.bsconf;
topology = anynet;
//use_noc_latency = 0;
//hold_switch_for_packet=0;

k = 1;

packet_size  = 1;
num_vcs      = 4;
vc_allocator = separable_input_first; 
sw_allocator = separable_input_first;

alloc_iters   = 1;
sample_period = 500;

wait_for_tail_credit = 0;
use_read_write       = 0;

credit_delay   = 2;
routing_delay  = 0;
vc_alloc_delay = 1;
sw_alloc_delay = 1;
st_final_delay = 1;

input_speedup     = 1;
output_speedup    = 1;
internal_speedup  = 2.0;

warmup_periods = 3;
sim_count      = 1;

priority = none;
injection_rate_uses_flits=1;
injection_rate = 0.01;
traffic = uniform;
use_size_power_of_two = no;
routing_function = min;
vc_buf_size = 16;
network_file = RAND.242.17.8.bsconf;
load_routing_file = no;
routing_table_file = RAND.242.17.8.bsconf;
topology = anynet;
//use_noc_latency = 0;
//hold_switch_for_packet=0;

k = 1;

packet_size  = 1;
num_vcs      = 4;
vc_allocator = separable_input_first; 
sw_allocator = separable_input_first;

alloc_iters   = 1;
sample_period = 500;

wait_for_tail_credit = 0;
use_read_write       = 0;

credit_delay   = 2;
routing_delay  = 0;
vc_alloc_delay = 1;
sw_alloc_delay = 1;
st_final_delay = 1;

input_speedup     = 1;
output_speedup    = 1;
internal_speedup  = 2.0;

warmup_periods = 3;
sim_count      = 1;

priority = none;
injection_rate_uses_flits=1;

END Configuration File: ./RAND.conf
========================Network File Parsed=================
******************node listing**********************

****************router to node listing*************

*****************router to router listing************
Number of nodes: 1936
Number of routers: 242
==========================Node to Router =====================
==========================Router to Router =====================
========================== Build Routing table  =====================
Start searching...Routing table for router 0 done  |Start searching...Routing table for router 1 done  |Start searching...Routing table for router 2 done  |Start searching...Routing table for router 3 done  |Start searching...Routing table for router 4 done  |Start searching...Routing table for router 5 done  |Start searching...Routing table for router 6 done  |Start searching...Routing table for router 7 done  |Start searching...Routing table for router 8 done  |Start searching...Routing table for router 9 done  |Start searching...Routing table for router 10 done  |Start searching...Routing table for router 11 done  |Start searching...Routing table for router 12 done  |Start searching...Routing table for router 13 done  |Start searching...Routing table for router 14 done  |Start searching...Routing table for router 15 done  |Start searching...Routing table for router 16 done  |Start searching...Routing table for router 17 done  |Start searching...Routing table for router 18 done  |Start searching...Routing table for router 19 done  |Start searching...Routing table for router 20 done  |Start searching...Routing table for router 21 done  |Start searching...Routing table for router 22 done  |Start searching...Routing table for router 23 done  |Start searching...Routing table for router 24 done  |Start searching...Routing table for router 25 done  |Start searching...Routing table for router 26 done  |Start searching...Routing table for router 27 done  |Start searching...Routing table for router 28 done  |Start searching...Routing table for router 29 done  |Start searching...Routing table for router 30 done  |Start searching...Routing table for router 31 done  |Start searching...Routing table for router 32 done  |Start searching...Routing table for router 33 done  |Start searching...Routing table for router 34 done  |Start searching...Routing table for router 35 done  |Start searching...Routing table for router 36 done  |Start searching...Routing table for router 37 done  |Start searching...Routing table for router 38 done  |Start searching...Routing table for router 39 done  |Start searching...Routing table for router 40 done  |Start searching...Routing table for router 41 done  |Start searching...Routing table for router 42 done  |Start searching...Routing table for router 43 done  |Start searching...Routing table for router 44 done  |Start searching...Routing table for router 45 done  |Start searching...Routing table for router 46 done  |Start searching...Routing table for router 47 done  |Start searching...Routing table for router 48 done  |Start searching...Routing table for router 49 done  |Start searching...Routing table for router 50 done  |Start searching...Routing table for router 51 done  |Start searching...Routing table for router 52 done  |Start searching...Routing table for router 53 done  |Start searching...Routing table for router 54 done  |Start searching...Routing table for router 55 done  |Start searching...Routing table for router 56 done  |Start searching...Routing table for router 57 done  |Start searching...Routing table for router 58 done  |Start searching...Routing table for router 59 done  |Start searching...Routing table for router 60 done  |Start searching...Routing table for router 61 done  |Start searching...Routing table for router 62 done  |Start searching...Routing table for router 63 done  |Start searching...Routing table for router 64 done  |Start searching...Routing table for router 65 done  |Start searching...Routing table for router 66 done  |Start searching...Routing table for router 67 done  |Start searching...Routing table for router 68 done  |Start searching...Routing table for router 69 done  |Start searching...Routing table for router 70 done  |Start searching...Routing table for router 71 done  |Start searching...Routing table for router 72 done  |Start searching...Routing table for router 73 done  |Start searching...Routing table for router 74 done  |Start searching...Routing table for router 75 done  |Start searching...Routing table for router 76 done  |Start searching...Routing table for router 77 done  |Start searching...Routing table for router 78 done  |Start searching...Routing table for router 79 done  |Start searching...Routing table for router 80 done  |Start searching...Routing table for router 81 done  |Start searching...Routing table for router 82 done  |Start searching...Routing table for router 83 done  |Start searching...Routing table for router 84 done  |Start searching...Routing table for router 85 done  |Start searching...Routing table for router 86 done  |Start searching...Routing table for router 87 done  |Start searching...Routing table for router 88 done  |Start searching...Routing table for router 89 done  |Start searching...Routing table for router 90 done  |Start searching...Routing table for router 91 done  |Start searching...Routing table for router 92 done  |Start searching...Routing table for router 93 done  |Start searching...Routing table for router 94 done  |Start searching...Routing table for router 95 done  |Start searching...Routing table for router 96 done  |Start searching...Routing table for router 97 done  |Start searching...Routing table for router 98 done  |Start searching...Routing table for router 99 done  |Start searching...Routing table for router 100 done  |Start searching...Routing table for router 101 done  |Start searching...Routing table for router 102 done  |Start searching...Routing table for router 103 done  |Start searching...Routing table for router 104 done  |Start searching...Routing table for router 105 done  |Start searching...Routing table for router 106 done  |Start searching...Routing table for router 107 done  |Start searching...Routing table for router 108 done  |Start searching...Routing table for router 109 done  |Start searching...Routing table for router 110 done  |Start searching...Routing table for router 111 done  |Start searching...Routing table for router 112 done  |Start searching...Routing table for router 113 done  |Start searching...Routing table for router 114 done  |Start searching...Routing table for router 115 done  |Start searching...Routing table for router 116 done  |Start searching...Routing table for router 117 done  |Start searching...Routing table for router 118 done  |Start searching...Routing table for router 119 done  |Start searching...Routing table for router 120 done  |Start searching...Routing table for router 121 done  |Start searching...Routing table for router 122 done  |Start searching...Routing table for router 123 done  |Start searching...Routing table for router 124 done  |Start searching...Routing table for router 125 done  |Start searching...Routing table for router 126 done  |Start searching...Routing table for router 127 done  |Start searching...Routing table for router 128 done  |Start searching...Routing table for router 129 done  |Start searching...Routing table for router 130 done  |Start searching...Routing table for router 131 done  |Start searching...Routing table for router 132 done  |Start searching...Routing table for router 133 done  |Start searching...Routing table for router 134 done  |Start searching...Routing table for router 135 done  |Start searching...Routing table for router 136 done  |Start searching...Routing table for router 137 done  |Start searching...Routing table for router 138 done  |Start searching...Routing table for router 139 done  |Start searching...Routing table for router 140 done  |Start searching...Routing table for router 141 done  |Start searching...Routing table for router 142 done  |Start searching...Routing table for router 143 done  |Start searching...Routing table for router 144 done  |Start searching...Routing table for router 145 done  |Start searching...Routing table for router 146 done  |Start searching...Routing table for router 147 done  |Start searching...Routing table for router 148 done  |Start searching...Routing table for router 149 done  |Start searching...Routing table for router 150 done  |Start searching...Routing table for router 151 done  |Start searching...Routing table for router 152 done  |Start searching...Routing table for router 153 done  |Start searching...Routing table for router 154 done  |Start searching...Routing table for router 155 done  |Start searching...Routing table for router 156 done  |Start searching...Routing table for router 157 done  |Start searching...Routing table for router 158 done  |Start searching...Routing table for router 159 done  |Start searching...Routing table for router 160 done  |Start searching...Routing table for router 161 done  |Start searching...Routing table for router 162 done  |Start searching...Routing table for router 163 done  |Start searching...Routing table for router 164 done  |Start searching...Routing table for router 165 done  |Start searching...Routing table for router 166 done  |Start searching...Routing table for router 167 done  |Start searching...Routing table for router 168 done  |Start searching...Routing table for router 169 done  |Start searching...Routing table for router 170 done  |Start searching...Routing table for router 171 done  |Start searching...Routing table for router 172 done  |Start searching...Routing table for router 173 done  |Start searching...Routing table for router 174 done  |Start searching...Routing table for router 175 done  |Start searching...Routing table for router 176 done  |Start searching...Routing table for router 177 done  |Start searching...Routing table for router 178 done  |Start searching...Routing table for router 179 done  |Start searching...Routing table for router 180 done  |Start searching...Routing table for router 181 done  |Start searching...Routing table for router 182 done  |Start searching...Routing table for router 183 done  |Start searching...Routing table for router 184 done  |Start searching...Routing table for router 185 done  |Start searching...Routing table for router 186 done  |Start searching...Routing table for router 187 done  |Start searching...Routing table for router 188 done  |Start searching...Routing table for router 189 done  |Start searching...Routing table for router 190 done  |Start searching...Routing table for router 191 done  |Start searching...Routing table for router 192 done  |Start searching...Routing table for router 193 done  |Start searching...Routing table for router 194 done  |Start searching...Routing table for router 195 done  |Start searching...Routing table for router 196 done  |Start searching...Routing table for router 197 done  |Start searching...Routing table for router 198 done  |Start searching...Routing table for router 199 done  |Start searching...Routing table for router 200 done  |Start searching...Routing table for router 201 done  |Start searching...Routing table for router 202 done  |Start searching...Routing table for router 203 done  |Start searching...Routing table for router 204 done  |Start searching...Routing table for router 205 done  |Start searching...Routing table for router 206 done  |Start searching...Routing table for router 207 done  |Start searching...Routing table for router 208 done  |Start searching...Routing table for router 209 done  |Start searching...Routing table for router 210 done  |Start searching...Routing table for router 211 done  |Start searching...Routing table for router 212 done  |Start searching...Routing table for router 213 done  |Start searching...Routing table for router 214 done  |Start searching...Routing table for router 215 done  |Start searching...Routing table for router 216 done  |Start searching...Routing table for router 217 done  |Start searching...Routing table for router 218 done  |Start searching...Routing table for router 219 done  |Start searching...Routing table for router 220 done  |Start searching...Routing table for router 221 done  |Start searching...Routing table for router 222 done  |Start searching...Routing table for router 223 done  |Start searching...Routing table for router 224 done  |Start searching...Routing table for router 225 done  |Start searching...Routing table for router 226 done  |Start searching...Routing table for router 227 done  |Start searching...Routing table for router 228 done  |Start searching...Routing table for router 229 done  |Start searching...Routing table for router 230 done  |Start searching...Routing table for router 231 done  |Start searching...Routing table for router 232 done  |Start searching...Routing table for router 233 done  |Start searching...Routing table for router 234 done  |Start searching...Routing table for router 235 done  |Start searching...Routing table for router 236 done  |Start searching...Routing table for router 237 done  |Start searching...Routing table for router 238 done  |Start searching...Routing table for router 239 done  |Start searching...Routing table for router 240 done  |Start searching...Routing table for router 241 done  |
========================== Build Routing table done  =====================

========================== Building Bad traffic pattern, type 2... ============================
=================== Finished building bad traffic pattern... ====================
Sum of nodes sending: 1936
Sum of nodes: 1936
0
Class 0:
Minimum packet latency = 5
Average packet latency = 11.6781
Maximum packet latency = 16
Minimum network latency = 5
Average network latency = 11.6781
Maximum network latency = 16
Slowest packet = 6325
Minimum flit latency = 5
Average flit latency = 11.6781
Maximum flit latency = 16
Slowest flit = 6325
Minimum fragmentation = 0
Average fragmentation = 0
Maximum fragmentation = 0
Minimum injected packet rate = 0 (at node 136)
Average injected packet rate = 0.00991529
Maximum injected packet rate = 0.028 (at node 1725)
Minimum accepted packet rate = 0 (at node 45)
Average accepted packet rate = 0.00969008
Maximum accepted packet rate = 0.028 (at node 801)
Minimum injected flit rate = 0 (at node 136)
Average injected flit rate = 0.00991529
Maximum injected flit rate = 0.028 (at node 1725)
Minimum accepted flit rate = 0 (at node 45)
Average accepted flit rate = 0.00969008
Maximum accepted flit rate = 0.028 (at node 801)
Average injected packet length = 1
Average accepted packet length = 1
Total in-flight flits = 218 (0 measured)
latency change    = 1
throughput change = 1
0
Class 0:
Minimum packet latency = 5
Average packet latency = 11.6992
Maximum packet latency = 16
Minimum network latency = 5
Average network latency = 11.6992
Maximum network latency = 16
Slowest packet = 6325
Minimum flit latency = 5
Average flit latency = 11.6992
Maximum flit latency = 16
Slowest flit = 6325
Minimum fragmentation = 0
Average fragmentation = 0
Maximum fragmentation = 0
Minimum injected packet rate = 0 (at node 469)
Average injected packet rate = 0.00998347
Maximum injected packet rate = 0.022 (at node 1563)
Minimum accepted packet rate = 0.001 (at node 289)
Average accepted packet rate = 0.00985124
Maximum accepted packet rate = 0.023 (at node 342)
Minimum injected flit rate = 0 (at node 469)
Average injected flit rate = 0.00998347
Maximum injected flit rate = 0.022 (at node 1563)
Minimum accepted flit rate = 0.001 (at node 289)
Average accepted flit rate = 0.00985124
Maximum accepted flit rate = 0.023 (at node 342)
Average injected packet length = 1
Average accepted packet length = 1
Total in-flight flits = 256 (0 measured)
latency change    = 0.00180353
throughput change = 0.0163591
0
Class 0:
Minimum packet latency = 5
Average packet latency = 11.7374
Maximum packet latency = 16
Minimum network latency = 5
Average network latency = 11.7374
Maximum network latency = 16
Slowest packet = 24642
Minimum flit latency = 5
Average flit latency = 11.7374
Maximum flit latency = 16
Slowest flit = 24642
Minimum fragmentation = 0
Average fragmentation = 0
Maximum fragmentation = 0
Minimum injected packet rate = 0 (at node 20)
Average injected packet rate = 0.0099969
Maximum injected packet rate = 0.028 (at node 495)
Minimum accepted packet rate = 0 (at node 60)
Average accepted packet rate = 0.0100207
Maximum accepted packet rate = 0.028 (at node 1737)
Minimum injected flit rate = 0 (at node 20)
Average injected flit rate = 0.0099969
Maximum injected flit rate = 0.028 (at node 495)
Minimum accepted flit rate = 0 (at node 60)
Average accepted flit rate = 0.0100207
Maximum accepted flit rate = 0.028 (at node 1737)
Average injected packet length = 1
Average accepted packet length = 1
Total in-flight flits = 233 (0 measured)
latency change    = 0.00325265
throughput change = 0.0169072
Warmed up ...Time used is 1500 cycles
1
Class 0:
Minimum packet latency = 5
Average packet latency = 11.7296
Maximum packet latency = 16
Minimum network latency = 5
Average network latency = 11.7296
Maximum network latency = 16
Slowest packet = 31829
Minimum flit latency = 5
Average flit latency = 11.7331
Maximum flit latency = 16
Slowest flit = 31829
Minimum fragmentation = 0
Average fragmentation = 0
Maximum fragmentation = 0
Minimum injected packet rate = 0 (at node 212)
Average injected packet rate = 0.0100496
Maximum injected packet rate = 0.028 (at node 995)
Minimum accepted packet rate = 0 (at node 72)
Average accepted packet rate = 0.0100527
Maximum accepted packet rate = 0.032 (at node 742)
Minimum injected flit rate = 0 (at node 212)
Average injected flit rate = 0.0100496
Maximum injected flit rate = 0.028 (at node 995)
Minimum accepted flit rate = 0 (at node 72)
Average accepted flit rate = 0.0100527
Maximum accepted flit rate = 0.032 (at node 742)
Average injected packet length = 1
Average accepted packet length = 1
Total in-flight flits = 230 (230 measured)
latency change    = 0.00066459
throughput change = 0.0031857
1
Class 0:
Minimum packet latency = 5
Average packet latency = 11.7135
Maximum packet latency = 16
Minimum network latency = 5
Average network latency = 11.7135
Maximum network latency = 16
Slowest packet = 31829
Minimum flit latency = 5
Average flit latency = 11.7154
Maximum flit latency = 16
Slowest flit = 31829
Minimum fragmentation = 0
Average fragmentation = 0
Maximum fragmentation = 0
Minimum injected packet rate = 0.002 (at node 64)
Average injected packet rate = 0.0100444
Maximum injected packet rate = 0.025 (at node 1521)
Minimum accepted packet rate = 0.001 (at node 72)
Average accepted packet rate = 0.0100527
Maximum accepted packet rate = 0.025 (at node 1794)
Minimum injected flit rate = 0.002 (at node 64)
Average injected flit rate = 0.0100444
Maximum injected flit rate = 0.025 (at node 1521)
Minimum accepted flit rate = 0.001 (at node 72)
Average accepted flit rate = 0.0100527
Maximum accepted flit rate = 0.025 (at node 1794)
Average injected packet length = 1
Average accepted packet length = 1
Total in-flight flits = 217 (217 measured)
latency change    = 0.00137633
throughput change = 0
1
Class 0:
Minimum packet latency = 5
Average packet latency = 11.7019
Maximum packet latency = 17
Minimum network latency = 5
Average network latency = 11.7019
Maximum network latency = 17
Slowest packet = 57252
Minimum flit latency = 5
Average flit latency = 11.7033
Maximum flit latency = 17
Slowest flit = 57252
Minimum fragmentation = 0
Average fragmentation = 0
Maximum fragmentation = 0
Minimum injected packet rate = 0.00266667 (at node 1590)
Average injected packet rate = 0.0100386
Maximum injected packet rate = 0.0206667 (at node 1521)
Minimum accepted packet rate = 0.00266667 (at node 72)
Average accepted packet rate = 0.0100365
Maximum accepted packet rate = 0.02 (at node 1220)
Minimum injected flit rate = 0.00266667 (at node 1590)
Average injected flit rate = 0.0100386
Maximum injected flit rate = 0.0206667 (at node 1521)
Minimum accepted flit rate = 0.00266667 (at node 72)
Average accepted flit rate = 0.0100365
Maximum accepted flit rate = 0.02 (at node 1220)
Average injected packet length = 1
Average accepted packet length = 1
Total in-flight flits = 239 (239 measured)
latency change    = 0.000991877
throughput change = 0.00161257
Draining all recorded packets ...
Draining remaining packets ...
Time taken is 3032 cycles
====== Traffic class 0 ======
Overall minimum packet latency = 5 (1 samples)
Overall average packet latency = 11.7032 (1 samples)
Overall maximum packet latency = 17 (1 samples)
Overall minimum network latency = 5 (1 samples)
Overall average network latency = 11.7032 (1 samples)
Overall maximum network latency = 17 (1 samples)
Overall minimum flit latency = 5 (1 samples)
Overall average flit latency = 11.7057 (1 samples)
Overall maximum flit latency = 17 (1 samples)
Overall minimum fragmentation = 0 (1 samples)
Overall average fragmentation = 0 (1 samples)
Overall maximum fragmentation = 0 (1 samples)
Overall minimum injected packet rate = 0.00266667 (1 samples)
Overall average injected packet rate = 0.0100386 (1 samples)
Overall maximum injected packet rate = 0.0206667 (1 samples)
Overall minimum accepted packet rate = 0.00266667 (1 samples)
Overall average accepted packet rate = 0.0100365 (1 samples)
Overall maximum accepted packet rate = 0.02 (1 samples)
Overall minimum injected flit rate = 0.00266667 (1 samples)
Overall average injected flit rate = 0.0100386 (1 samples)
Overall maximum injected flit rate = 0.0206667 (1 samples)
Overall minimum accepted flit rate = 0.00266667 (1 samples)
Overall average accepted flit rate = 0.0100365 (1 samples)
Overall maximum accepted flit rate = 0.02 (1 samples)
Overall average injected packet size = 1 (1 samples)
Overall average accepted packet size = 1 (1 samples)
Overall average hops = 3.22791 (1 samples)
Total run time 21.9496
