BEGIN Configuration File: ./RAND.conf
injection_rate = 0.01;
traffic = uniform;
use_size_power_of_two = no;
routing_function = min;
vc_buf_size = 16;
network_file = RAND.50.7.3.bsconf;
load_routing_file = no;
routing_table_file = RAND.50.7.3.bsconf;
topology = anynet;
//use_noc_latency = 0;
//hold_switch_for_packet=0;

k = 1;

packet_size  = 1;
num_vcs      = 4;
vc_allocator = separable_input_first; 
sw_allocator = separable_input_first;

alloc_iters   = 1;
sample_period = 500;

wait_for_tail_credit = 0;
use_read_write       = 0;

credit_delay   = 2;
routing_delay  = 0;
vc_alloc_delay = 1;
sw_alloc_delay = 1;
st_final_delay = 1;

input_speedup     = 1;
output_speedup    = 1;
internal_speedup  = 2.0;

warmup_periods = 3;
sim_count      = 1;

priority = none;
injection_rate_uses_flits=1;
injection_rate = 0.01;
traffic = uniform;
use_size_power_of_two = no;
routing_function = min;
vc_buf_size = 16;
network_file = RAND.98.11.5.bsconf;
load_routing_file = no;
routing_table_file = RAND.98.11.5.bsconf;
topology = anynet;
//use_noc_latency = 0;
//hold_switch_for_packet=0;

k = 1;

packet_size  = 1;
num_vcs      = 4;
vc_allocator = separable_input_first; 
sw_allocator = separable_input_first;

alloc_iters   = 1;
sample_period = 500;

wait_for_tail_credit = 0;
use_read_write       = 0;

credit_delay   = 2;
routing_delay  = 0;
vc_alloc_delay = 1;
sw_alloc_delay = 1;
st_final_delay = 1;

input_speedup     = 1;
output_speedup    = 1;
internal_speedup  = 2.0;

warmup_periods = 3;
sim_count      = 1;

priority = none;
injection_rate_uses_flits=1;

END Configuration File: ./RAND.conf
========================Network File Parsed=================
******************node listing**********************

****************router to node listing*************

*****************router to router listing************
Number of nodes: 490
Number of routers: 98
==========================Node to Router =====================
==========================Router to Router =====================
========================== Build Routing table  =====================
Start searching...Routing table for router 0 done  |Start searching...Routing table for router 1 done  |Start searching...Routing table for router 2 done  |Start searching...Routing table for router 3 done  |Start searching...Routing table for router 4 done  |Start searching...Routing table for router 5 done  |Start searching...Routing table for router 6 done  |Start searching...Routing table for router 7 done  |Start searching...Routing table for router 8 done  |Start searching...Routing table for router 9 done  |Start searching...Routing table for router 10 done  |Start searching...Routing table for router 11 done  |Start searching...Routing table for router 12 done  |Start searching...Routing table for router 13 done  |Start searching...Routing table for router 14 done  |Start searching...Routing table for router 15 done  |Start searching...Routing table for router 16 done  |Start searching...Routing table for router 17 done  |Start searching...Routing table for router 18 done  |Start searching...Routing table for router 19 done  |Start searching...Routing table for router 20 done  |Start searching...Routing table for router 21 done  |Start searching...Routing table for router 22 done  |Start searching...Routing table for router 23 done  |Start searching...Routing table for router 24 done  |Start searching...Routing table for router 25 done  |Start searching...Routing table for router 26 done  |Start searching...Routing table for router 27 done  |Start searching...Routing table for router 28 done  |Start searching...Routing table for router 29 done  |Start searching...Routing table for router 30 done  |Start searching...Routing table for router 31 done  |Start searching...Routing table for router 32 done  |Start searching...Routing table for router 33 done  |Start searching...Routing table for router 34 done  |Start searching...Routing table for router 35 done  |Start searching...Routing table for router 36 done  |Start searching...Routing table for router 37 done  |Start searching...Routing table for router 38 done  |Start searching...Routing table for router 39 done  |Start searching...Routing table for router 40 done  |Start searching...Routing table for router 41 done  |Start searching...Routing table for router 42 done  |Start searching...Routing table for router 43 done  |Start searching...Routing table for router 44 done  |Start searching...Routing table for router 45 done  |Start searching...Routing table for router 46 done  |Start searching...Routing table for router 47 done  |Start searching...Routing table for router 48 done  |Start searching...Routing table for router 49 done  |Start searching...Routing table for router 50 done  |Start searching...Routing table for router 51 done  |Start searching...Routing table for router 52 done  |Start searching...Routing table for router 53 done  |Start searching...Routing table for router 54 done  |Start searching...Routing table for router 55 done  |Start searching...Routing table for router 56 done  |Start searching...Routing table for router 57 done  |Start searching...Routing table for router 58 done  |Start searching...Routing table for router 59 done  |Start searching...Routing table for router 60 done  |Start searching...Routing table for router 61 done  |Start searching...Routing table for router 62 done  |Start searching...Routing table for router 63 done  |Start searching...Routing table for router 64 done  |Start searching...Routing table for router 65 done  |Start searching...Routing table for router 66 done  |Start searching...Routing table for router 67 done  |Start searching...Routing table for router 68 done  |Start searching...Routing table for router 69 done  |Start searching...Routing table for router 70 done  |Start searching...Routing table for router 71 done  |Start searching...Routing table for router 72 done  |Start searching...Routing table for router 73 done  |Start searching...Routing table for router 74 done  |Start searching...Routing table for router 75 done  |Start searching...Routing table for router 76 done  |Start searching...Routing table for router 77 done  |Start searching...Routing table for router 78 done  |Start searching...Routing table for router 79 done  |Start searching...Routing table for router 80 done  |Start searching...Routing table for router 81 done  |Start searching...Routing table for router 82 done  |Start searching...Routing table for router 83 done  |Start searching...Routing table for router 84 done  |Start searching...Routing table for router 85 done  |Start searching...Routing table for router 86 done  |Start searching...Routing table for router 87 done  |Start searching...Routing table for router 88 done  |Start searching...Routing table for router 89 done  |Start searching...Routing table for router 90 done  |Start searching...Routing table for router 91 done  |Start searching...Routing table for router 92 done  |Start searching...Routing table for router 93 done  |Start searching...Routing table for router 94 done  |Start searching...Routing table for router 95 done  |Start searching...Routing table for router 96 done  |Start searching...Routing table for router 97 done  |
========================== Build Routing table done  =====================

========================== Building Bad traffic pattern, type 2... ============================
=================== Finished building bad traffic pattern... ====================
Sum of nodes sending: 490
Sum of nodes: 490
0
Class 0:
Minimum packet latency = 5
Average packet latency = 11.4392
Maximum packet latency = 15
Minimum network latency = 5
Average network latency = 11.4392
Maximum network latency = 15
Slowest packet = 10
Minimum flit latency = 5
Average flit latency = 11.4392
Maximum flit latency = 15
Slowest flit = 10
Minimum fragmentation = 0
Average fragmentation = 0
Maximum fragmentation = 0
Minimum injected packet rate = 0 (at node 104)
Average injected packet rate = 0.00994694
Maximum injected packet rate = 0.026 (at node 187)
Minimum accepted packet rate = 0 (at node 146)
Average accepted packet rate = 0.00973061
Maximum accepted packet rate = 0.026 (at node 367)
Minimum injected flit rate = 0 (at node 104)
Average injected flit rate = 0.00994694
Maximum injected flit rate = 0.026 (at node 187)
Minimum accepted flit rate = 0 (at node 146)
Average accepted flit rate = 0.00973061
Maximum accepted flit rate = 0.026 (at node 367)
Average injected packet length = 1
Average accepted packet length = 1
Total in-flight flits = 53 (0 measured)
latency change    = 1
throughput change = 1
0
Class 0:
Minimum packet latency = 5
Average packet latency = 11.4373
Maximum packet latency = 15
Minimum network latency = 5
Average network latency = 11.4373
Maximum network latency = 15
Slowest packet = 10
Minimum flit latency = 5
Average flit latency = 11.4373
Maximum flit latency = 15
Slowest flit = 10
Minimum fragmentation = 0
Average fragmentation = 0
Maximum fragmentation = 0
Minimum injected packet rate = 0.002 (at node 228)
Average injected packet rate = 0.00987959
Maximum injected packet rate = 0.019 (at node 436)
Minimum accepted packet rate = 0.002 (at node 41)
Average accepted packet rate = 0.00977143
Maximum accepted packet rate = 0.019 (at node 194)
Minimum injected flit rate = 0.002 (at node 228)
Average injected flit rate = 0.00987959
Maximum injected flit rate = 0.019 (at node 436)
Minimum accepted flit rate = 0.002 (at node 41)
Average accepted flit rate = 0.00977143
Maximum accepted flit rate = 0.019 (at node 194)
Average injected packet length = 1
Average accepted packet length = 1
Total in-flight flits = 53 (0 measured)
latency change    = 0.000160395
throughput change = 0.00417711
0
Class 0:
Minimum packet latency = 5
Average packet latency = 11.4807
Maximum packet latency = 15
Minimum network latency = 5
Average network latency = 11.4807
Maximum network latency = 15
Slowest packet = 5195
Minimum flit latency = 5
Average flit latency = 11.4807
Maximum flit latency = 15
Slowest flit = 5195
Minimum fragmentation = 0
Average fragmentation = 0
Maximum fragmentation = 0
Minimum injected packet rate = 0 (at node 143)
Average injected packet rate = 0.0100857
Maximum injected packet rate = 0.03 (at node 103)
Minimum accepted packet rate = 0 (at node 78)
Average accepted packet rate = 0.00995918
Maximum accepted packet rate = 0.03 (at node 12)
Minimum injected flit rate = 0 (at node 143)
Average injected flit rate = 0.0100857
Maximum injected flit rate = 0.03 (at node 103)
Minimum accepted flit rate = 0 (at node 78)
Average accepted flit rate = 0.00995918
Maximum accepted flit rate = 0.03 (at node 12)
Average injected packet length = 1
Average accepted packet length = 1
Total in-flight flits = 84 (0 measured)
latency change    = 0.00377975
throughput change = 0.0188525
Warmed up ...Time used is 1500 cycles
1
Class 0:
Minimum packet latency = 5
Average packet latency = 11.4437
Maximum packet latency = 15
Minimum network latency = 5
Average network latency = 11.4437
Maximum network latency = 15
Slowest packet = 7392
Minimum flit latency = 5
Average flit latency = 11.4416
Maximum flit latency = 15
Slowest flit = 7215
Minimum fragmentation = 0
Average fragmentation = 0
Maximum fragmentation = 0
Minimum injected packet rate = 0 (at node 74)
Average injected packet rate = 0.00986122
Maximum injected packet rate = 0.026 (at node 355)
Minimum accepted packet rate = 0 (at node 49)
Average accepted packet rate = 0.0099551
Maximum accepted packet rate = 0.022 (at node 225)
Minimum injected flit rate = 0 (at node 74)
Average injected flit rate = 0.00986122
Maximum injected flit rate = 0.026 (at node 355)
Minimum accepted flit rate = 0 (at node 49)
Average accepted flit rate = 0.0099551
Maximum accepted flit rate = 0.022 (at node 225)
Average injected packet length = 1
Average accepted packet length = 1
Total in-flight flits = 61 (61 measured)
latency change    = 0.00323329
throughput change = 0.000410004
1
Class 0:
Minimum packet latency = 5
Average packet latency = 11.4773
Maximum packet latency = 15
Minimum network latency = 5
Average network latency = 11.4773
Maximum network latency = 15
Slowest packet = 7392
Minimum flit latency = 5
Average flit latency = 11.4757
Maximum flit latency = 15
Slowest flit = 7215
Minimum fragmentation = 0
Average fragmentation = 0
Maximum fragmentation = 0
Minimum injected packet rate = 0.003 (at node 101)
Average injected packet rate = 0.00988367
Maximum injected packet rate = 0.02 (at node 342)
Minimum accepted packet rate = 0.001 (at node 290)
Average accepted packet rate = 0.00994082
Maximum accepted packet rate = 0.02 (at node 271)
Minimum injected flit rate = 0.003 (at node 101)
Average injected flit rate = 0.00988367
Maximum injected flit rate = 0.02 (at node 342)
Minimum accepted flit rate = 0.001 (at node 290)
Average accepted flit rate = 0.00994082
Maximum accepted flit rate = 0.02 (at node 271)
Average injected packet length = 1
Average accepted packet length = 1
Total in-flight flits = 56 (56 measured)
latency change    = 0.00292731
throughput change = 0.00143708
1
Class 0:
Minimum packet latency = 5
Average packet latency = 11.4817
Maximum packet latency = 15
Minimum network latency = 5
Average network latency = 11.4817
Maximum network latency = 15
Slowest packet = 7392
Minimum flit latency = 5
Average flit latency = 11.4805
Maximum flit latency = 15
Slowest flit = 7215
Minimum fragmentation = 0
Average fragmentation = 0
Maximum fragmentation = 0
Minimum injected packet rate = 0.004 (at node 165)
Average injected packet rate = 0.00993741
Maximum injected packet rate = 0.0193333 (at node 18)
Minimum accepted packet rate = 0.00266667 (at node 290)
Average accepted packet rate = 0.00997551
Maximum accepted packet rate = 0.018 (at node 271)
Minimum injected flit rate = 0.004 (at node 165)
Average injected flit rate = 0.00993741
Maximum injected flit rate = 0.0193333 (at node 18)
Minimum accepted flit rate = 0.00266667 (at node 290)
Average accepted flit rate = 0.00997551
Maximum accepted flit rate = 0.018 (at node 271)
Average injected packet length = 1
Average accepted packet length = 1
Total in-flight flits = 56 (56 measured)
latency change    = 0.000375875
throughput change = 0.00347791
Draining all recorded packets ...
Draining remaining packets ...
Time taken is 3032 cycles
====== Traffic class 0 ======
Overall minimum packet latency = 5 (1 samples)
Overall average packet latency = 11.4847 (1 samples)
Overall maximum packet latency = 15 (1 samples)
Overall minimum network latency = 5 (1 samples)
Overall average network latency = 11.4847 (1 samples)
Overall maximum network latency = 15 (1 samples)
Overall minimum flit latency = 5 (1 samples)
Overall average flit latency = 11.4792 (1 samples)
Overall maximum flit latency = 15 (1 samples)
Overall minimum fragmentation = 0 (1 samples)
Overall average fragmentation = 0 (1 samples)
Overall maximum fragmentation = 0 (1 samples)
Overall minimum injected packet rate = 0.004 (1 samples)
Overall average injected packet rate = 0.00993741 (1 samples)
Overall maximum injected packet rate = 0.0193333 (1 samples)
Overall minimum accepted packet rate = 0.00266667 (1 samples)
Overall average accepted packet rate = 0.00997551 (1 samples)
Overall maximum accepted packet rate = 0.018 (1 samples)
Overall minimum injected flit rate = 0.004 (1 samples)
Overall average injected flit rate = 0.00993741 (1 samples)
Overall maximum injected flit rate = 0.0193333 (1 samples)
Overall minimum accepted flit rate = 0.00266667 (1 samples)
Overall average accepted flit rate = 0.00997551 (1 samples)
Overall maximum accepted flit rate = 0.018 (1 samples)
Overall average injected packet size = 1 (1 samples)
Overall average accepted packet size = 1 (1 samples)
Overall average hops = 3.15622 (1 samples)
Total run time 3.85539
