BEGIN Configuration File: ./HC
injection_rate = 0.6;
traffic = uniform;
routing_function = dim_order;
vc_buf_size = 16;
topology = torus;
use_noc_latency = 0;
hold_switch_for_packet=0;

k = 2;
n = 13;

packet_size  = 1;
num_vcs      = 2;
vc_allocator = separable_input_first; 
sw_allocator = separable_input_first;

alloc_iters   = 1;
sample_period = 500;

wait_for_tail_credit = 0;
use_read_write       = 0;

credit_delay   = 2;
routing_delay  = 0;
vc_alloc_delay = 1;
sw_alloc_delay = 1;
st_final_delay = 1;

input_speedup     = 1;
output_speedup    = 1;
internal_speedup  = 2.0;

warmup_periods = 3;
sim_count      = 1;

priority = none;
injection_rate_uses_flits=1;

END Configuration File: ./HC
Number of nodes: 8192
Number of routers: 8192
0
Class 0:
Minimum packet latency = 5
Average packet latency = 25.6
Maximum packet latency = 52
Minimum network latency = 5
Average network latency = 25.6
Maximum network latency = 52
Slowest packet = 116878
Minimum flit latency = 5
Average flit latency = 25.6
Maximum flit latency = 52
Slowest flit = 116878
Minimum fragmentation = 0
Average fragmentation = 0
Maximum fragmentation = 0
Minimum injected packet rate = 0.51 (at node 6260)
Average injected packet rate = 0.599709
Maximum injected packet rate = 0.698 (at node 1815)
Minimum accepted packet rate = 0.45 (at node 22)
Average accepted packet rate = 0.568872
Maximum accepted packet rate = 0.69 (at node 5882)
Minimum injected flit rate = 0.51 (at node 6260)
Average injected flit rate = 0.599709
Maximum injected flit rate = 0.698 (at node 1815)
Minimum accepted flit rate = 0.45 (at node 22)
Average accepted flit rate = 0.568872
Maximum accepted flit rate = 0.69 (at node 5882)
Average injected packet length = 1
Average accepted packet length = 1
Total in-flight flits = 126307 (0 measured)
latency change    = 1
throughput change = 1
0
Class 0:
Minimum packet latency = 5
Average packet latency = 25.6431
Maximum packet latency = 52
Minimum network latency = 5
Average network latency = 25.6431
Maximum network latency = 52
Slowest packet = 116878
Minimum flit latency = 5
Average flit latency = 25.6431
Maximum flit latency = 52
Slowest flit = 116878
Minimum fragmentation = 0
Average fragmentation = 0
Maximum fragmentation = 0
Minimum injected packet rate = 0.543 (at node 6140)
Average injected packet rate = 0.599816
Maximum injected packet rate = 0.653 (at node 2001)
Minimum accepted packet rate = 0.497 (at node 3845)
Average accepted packet rate = 0.584488
Maximum accepted packet rate = 0.669 (at node 6786)
Minimum injected flit rate = 0.543 (at node 6140)
Average injected flit rate = 0.599816
Maximum injected flit rate = 0.653 (at node 2001)
Minimum accepted flit rate = 0.497 (at node 3845)
Average accepted flit rate = 0.584488
Maximum accepted flit rate = 0.669 (at node 6786)
Average injected packet length = 1
Average accepted packet length = 1
Total in-flight flits = 125565 (0 measured)
latency change    = 0.00167985
throughput change = 0.0267177
0
Class 0:
Minimum packet latency = 5
Average packet latency = 25.6838
Maximum packet latency = 56
Minimum network latency = 5
Average network latency = 25.6838
Maximum network latency = 56
Slowest packet = 4965467
Minimum flit latency = 5
Average flit latency = 25.6838
Maximum flit latency = 56
Slowest flit = 4965467
Minimum fragmentation = 0
Average fragmentation = 0
Maximum fragmentation = 0
Minimum injected packet rate = 0.514 (at node 4374)
Average injected packet rate = 0.599959
Maximum injected packet rate = 0.68 (at node 6945)
Minimum accepted packet rate = 0.478 (at node 1304)
Average accepted packet rate = 0.599817
Maximum accepted packet rate = 0.732 (at node 2554)
Minimum injected flit rate = 0.514 (at node 4374)
Average injected flit rate = 0.599959
Maximum injected flit rate = 0.68 (at node 6945)
Minimum accepted flit rate = 0.478 (at node 1304)
Average accepted flit rate = 0.599817
Maximum accepted flit rate = 0.732 (at node 2554)
Average injected packet length = 1
Average accepted packet length = 1
Total in-flight flits = 126147 (0 measured)
latency change    = 0.00158699
throughput change = 0.0255551
Warmed up ...Time used is 1500 cycles
1
Class 0:
Minimum packet latency = 5
Average packet latency = 25.6132
Maximum packet latency = 53
Minimum network latency = 5
Average network latency = 25.6132
Maximum network latency = 53
Slowest packet = 8765131
Minimum flit latency = 5
Average flit latency = 25.6822
Maximum flit latency = 53
Slowest flit = 8765131
Minimum fragmentation = 0
Average fragmentation = 0
Maximum fragmentation = 0
Minimum injected packet rate = 0.506 (at node 119)
Average injected packet rate = 0.59985
Maximum injected packet rate = 0.69 (at node 6798)
Minimum accepted packet rate = 0.478 (at node 5097)
Average accepted packet rate = 0.599822
Maximum accepted packet rate = 0.732 (at node 494)
Minimum injected flit rate = 0.506 (at node 119)
Average injected flit rate = 0.59985
Maximum injected flit rate = 0.69 (at node 6798)
Minimum accepted flit rate = 0.478 (at node 5097)
Average accepted flit rate = 0.599822
Maximum accepted flit rate = 0.732 (at node 494)
Average injected packet length = 1
Average accepted packet length = 1
Total in-flight flits = 126262 (126262 measured)
latency change    = 0.0027587
throughput change = 9.3615e-06
1
Class 0:
Minimum packet latency = 5
Average packet latency = 25.6492
Maximum packet latency = 53
Minimum network latency = 5
Average network latency = 25.6492
Maximum network latency = 53
Slowest packet = 8765131
Minimum flit latency = 5
Average flit latency = 25.6828
Maximum flit latency = 53
Slowest flit = 8765131
Minimum fragmentation = 0
Average fragmentation = 0
Maximum fragmentation = 0
Minimum injected packet rate = 0.54 (at node 3308)
Average injected packet rate = 0.599988
Maximum injected packet rate = 0.657 (at node 6798)
Minimum accepted packet rate = 0.512 (at node 5097)
Average accepted packet rate = 0.599995
Maximum accepted packet rate = 0.693 (at node 5470)
Minimum injected flit rate = 0.54 (at node 3308)
Average injected flit rate = 0.599988
Maximum injected flit rate = 0.657 (at node 6798)
Minimum accepted flit rate = 0.512 (at node 5097)
Average accepted flit rate = 0.599995
Maximum accepted flit rate = 0.693 (at node 5470)
Average injected packet length = 1
Average accepted packet length = 1
Total in-flight flits = 126083 (126083 measured)
latency change    = 0.00140412
throughput change = 0.000288698
1
Class 0:
Minimum packet latency = 5
Average packet latency = 25.6587
Maximum packet latency = 53
Minimum network latency = 5
Average network latency = 25.6587
Maximum network latency = 53
Slowest packet = 8765131
Minimum flit latency = 5
Average flit latency = 25.6809
Maximum flit latency = 53
Slowest flit = 8765131
Minimum fragmentation = 0
Average fragmentation = 0
Maximum fragmentation = 0
Minimum injected packet rate = 0.546 (at node 4717)
Average injected packet rate = 0.600087
Maximum injected packet rate = 0.651333 (at node 6798)
Minimum accepted packet rate = 0.526667 (at node 3771)
Average accepted packet rate = 0.600072
Maximum accepted packet rate = 0.672667 (at node 5905)
Minimum injected flit rate = 0.546 (at node 4717)
Average injected flit rate = 0.600087
Maximum injected flit rate = 0.651333 (at node 6798)
Minimum accepted flit rate = 0.526667 (at node 3771)
Average accepted flit rate = 0.600072
Maximum accepted flit rate = 0.672667 (at node 5905)
Average injected packet length = 1
Average accepted packet length = 1
Total in-flight flits = 126336 (126336 measured)
latency change    = 0.000369754
throughput change = 0.000127548
Draining all recorded packets ...
Draining remaining packets ...
Time taken is 3094 cycles
====== Traffic class 0 ======
Overall minimum packet latency = 5 (1 samples)
Overall average packet latency = 25.6804 (1 samples)
Overall maximum packet latency = 53 (1 samples)
Overall minimum network latency = 5 (1 samples)
Overall average network latency = 25.6804 (1 samples)
Overall maximum network latency = 53 (1 samples)
Overall minimum flit latency = 5 (1 samples)
Overall average flit latency = 25.699 (1 samples)
Overall maximum flit latency = 53 (1 samples)
Overall minimum fragmentation = 0 (1 samples)
Overall average fragmentation = 0 (1 samples)
Overall maximum fragmentation = 0 (1 samples)
Overall minimum injected packet rate = 0.546 (1 samples)
Overall average injected packet rate = 0.600087 (1 samples)
Overall maximum injected packet rate = 0.651333 (1 samples)
Overall minimum accepted packet rate = 0.526667 (1 samples)
Overall average accepted packet rate = 0.600072 (1 samples)
Overall maximum accepted packet rate = 0.672667 (1 samples)
Overall minimum injected flit rate = 0.546 (1 samples)
Overall average injected flit rate = 0.600087 (1 samples)
Overall maximum injected flit rate = 0.651333 (1 samples)
Overall minimum accepted flit rate = 0.526667 (1 samples)
Overall average accepted flit rate = 0.600072 (1 samples)
Overall maximum accepted flit rate = 0.672667 (1 samples)
Overall average injected packet size = 1 (1 samples)
Overall average accepted packet size = 1 (1 samples)
Overall average hops = 7.4992 (1 samples)
Total run time 2137.15
