BEGIN Configuration File: ./HC
injection_rate = 0.65;
traffic = uniform;
routing_function = dim_order;
vc_buf_size = 16;
topology = torus;
use_noc_latency = 0;
hold_switch_for_packet=0;

k = 2;
n = 13;

packet_size  = 1;
num_vcs      = 2;
vc_allocator = separable_input_first; 
sw_allocator = separable_input_first;

alloc_iters   = 1;
sample_period = 500;

wait_for_tail_credit = 0;
use_read_write       = 0;

credit_delay   = 2;
routing_delay  = 0;
vc_alloc_delay = 1;
sw_alloc_delay = 1;
st_final_delay = 1;

input_speedup     = 1;
output_speedup    = 1;
internal_speedup  = 2.0;

warmup_periods = 3;
sim_count      = 1;

priority = none;
injection_rate_uses_flits=1;

END Configuration File: ./HC
Number of nodes: 8192
Number of routers: 8192
0
Class 0:
Minimum packet latency = 5
Average packet latency = 25.8302
Maximum packet latency = 54
Minimum network latency = 5
Average network latency = 25.8302
Maximum network latency = 54
Slowest packet = 1434100
Minimum flit latency = 5
Average flit latency = 25.8302
Maximum flit latency = 54
Slowest flit = 1434100
Minimum fragmentation = 0
Average fragmentation = 0
Maximum fragmentation = 0
Minimum injected packet rate = 0.568 (at node 2184)
Average injected packet rate = 0.649729
Maximum injected packet rate = 0.734 (at node 1815)
Minimum accepted packet rate = 0.502 (at node 22)
Average accepted packet rate = 0.61608
Maximum accepted packet rate = 0.748 (at node 2801)
Minimum injected flit rate = 0.568 (at node 2184)
Average injected flit rate = 0.649729
Maximum injected flit rate = 0.734 (at node 1815)
Minimum accepted flit rate = 0.502 (at node 22)
Average accepted flit rate = 0.61608
Maximum accepted flit rate = 0.748 (at node 2801)
Average injected packet length = 1
Average accepted packet length = 1
Total in-flight flits = 137828 (0 measured)
latency change    = 1
throughput change = 1
0
Class 0:
Minimum packet latency = 5
Average packet latency = 25.8715
Maximum packet latency = 59
Minimum network latency = 5
Average network latency = 25.8715
Maximum network latency = 59
Slowest packet = 4840733
Minimum flit latency = 5
Average flit latency = 25.8715
Maximum flit latency = 59
Slowest flit = 4840733
Minimum fragmentation = 0
Average fragmentation = 0
Maximum fragmentation = 0
Minimum injected packet rate = 0.595 (at node 6140)
Average injected packet rate = 0.649816
Maximum injected packet rate = 0.704 (at node 1006)
Minimum accepted packet rate = 0.549 (at node 6690)
Average accepted packet rate = 0.633037
Maximum accepted packet rate = 0.724 (at node 3113)
Minimum injected flit rate = 0.595 (at node 6140)
Average injected flit rate = 0.649816
Maximum injected flit rate = 0.704 (at node 1006)
Minimum accepted flit rate = 0.549 (at node 6690)
Average accepted flit rate = 0.633037
Maximum accepted flit rate = 0.724 (at node 3113)
Average injected packet length = 1
Average accepted packet length = 1
Total in-flight flits = 137448 (0 measured)
latency change    = 0.00159705
throughput change = 0.0267875
0
Class 0:
Minimum packet latency = 5
Average packet latency = 25.9134
Maximum packet latency = 55
Minimum network latency = 5
Average network latency = 25.9134
Maximum network latency = 55
Slowest packet = 6191191
Minimum flit latency = 5
Average flit latency = 25.9134
Maximum flit latency = 55
Slowest flit = 6191191
Minimum fragmentation = 0
Average fragmentation = 0
Maximum fragmentation = 0
Minimum injected packet rate = 0.568 (at node 2059)
Average injected packet rate = 0.650043
Maximum injected packet rate = 0.718 (at node 6945)
Minimum accepted packet rate = 0.536 (at node 6848)
Average accepted packet rate = 0.649792
Maximum accepted packet rate = 0.796 (at node 903)
Minimum injected flit rate = 0.568 (at node 2059)
Average injected flit rate = 0.650043
Maximum injected flit rate = 0.718 (at node 6945)
Minimum accepted flit rate = 0.536 (at node 6848)
Average accepted flit rate = 0.649792
Maximum accepted flit rate = 0.796 (at node 903)
Average injected packet length = 1
Average accepted packet length = 1
Total in-flight flits = 138478 (0 measured)
latency change    = 0.00161633
throughput change = 0.0257839
Warmed up ...Time used is 1500 cycles
1
Class 0:
Minimum packet latency = 5
Average packet latency = 25.8482
Maximum packet latency = 53
Minimum network latency = 5
Average network latency = 25.8482
Maximum network latency = 53
Slowest packet = 8539246
Minimum flit latency = 5
Average flit latency = 25.9195
Maximum flit latency = 53
Slowest flit = 8539246
Minimum fragmentation = 0
Average fragmentation = 0
Maximum fragmentation = 0
Minimum injected packet rate = 0.556 (at node 119)
Average injected packet rate = 0.649896
Maximum injected packet rate = 0.728 (at node 1910)
Minimum accepted packet rate = 0.532 (at node 7416)
Average accepted packet rate = 0.649956
Maximum accepted packet rate = 0.782 (at node 3657)
Minimum injected flit rate = 0.556 (at node 119)
Average injected flit rate = 0.649896
Maximum injected flit rate = 0.728 (at node 1910)
Minimum accepted flit rate = 0.532 (at node 7416)
Average accepted flit rate = 0.649956
Maximum accepted flit rate = 0.782 (at node 3657)
Average injected packet length = 1
Average accepted packet length = 1
Total in-flight flits = 138229 (138229 measured)
latency change    = 0.00252058
throughput change = 0.000253548
1
Class 0:
Minimum packet latency = 5
Average packet latency = 25.8847
Maximum packet latency = 54
Minimum network latency = 5
Average network latency = 25.8847
Maximum network latency = 54
Slowest packet = 11845003
Minimum flit latency = 5
Average flit latency = 25.9194
Maximum flit latency = 54
Slowest flit = 11845003
Minimum fragmentation = 0
Average fragmentation = 0
Maximum fragmentation = 0
Minimum injected packet rate = 0.592 (at node 5423)
Average injected packet rate = 0.649937
Maximum injected packet rate = 0.704 (at node 6530)
Minimum accepted packet rate = 0.561 (at node 2226)
Average accepted packet rate = 0.650004
Maximum accepted packet rate = 0.749 (at node 7103)
Minimum injected flit rate = 0.592 (at node 5423)
Average injected flit rate = 0.649937
Maximum injected flit rate = 0.704 (at node 6530)
Minimum accepted flit rate = 0.561 (at node 2226)
Average accepted flit rate = 0.650004
Maximum accepted flit rate = 0.749 (at node 7103)
Average injected packet length = 1
Average accepted packet length = 1
Total in-flight flits = 137932 (137932 measured)
latency change    = 0.00141076
throughput change = 7.36173e-05
1
Class 0:
Minimum packet latency = 5
Average packet latency = 25.8964
Maximum packet latency = 57
Minimum network latency = 5
Average network latency = 25.8964
Maximum network latency = 57
Slowest packet = 13798613
Minimum flit latency = 5
Average flit latency = 25.9193
Maximum flit latency = 57
Slowest flit = 13798613
Minimum fragmentation = 0
Average fragmentation = 0
Maximum fragmentation = 0
Minimum injected packet rate = 0.602667 (at node 5308)
Average injected packet rate = 0.650031
Maximum injected packet rate = 0.693333 (at node 7052)
Minimum accepted packet rate = 0.560667 (at node 1864)
Average accepted packet rate = 0.650052
Maximum accepted packet rate = 0.730667 (at node 3276)
Minimum injected flit rate = 0.602667 (at node 5308)
Average injected flit rate = 0.650031
Maximum injected flit rate = 0.693333 (at node 7052)
Minimum accepted flit rate = 0.560667 (at node 1864)
Average accepted flit rate = 0.650052
Maximum accepted flit rate = 0.730667 (at node 3276)
Average injected packet length = 1
Average accepted packet length = 1
Total in-flight flits = 138216 (138216 measured)
latency change    = 0.000450333
throughput change = 7.34867e-05
Draining all recorded packets ...
Draining remaining packets ...
Time taken is 3095 cycles
====== Traffic class 0 ======
Overall minimum packet latency = 5 (1 samples)
Overall average packet latency = 25.9194 (1 samples)
Overall maximum packet latency = 57 (1 samples)
Overall minimum network latency = 5 (1 samples)
Overall average network latency = 25.9194 (1 samples)
Overall maximum network latency = 57 (1 samples)
Overall minimum flit latency = 5 (1 samples)
Overall average flit latency = 25.9376 (1 samples)
Overall maximum flit latency = 57 (1 samples)
Overall minimum fragmentation = 0 (1 samples)
Overall average fragmentation = 0 (1 samples)
Overall maximum fragmentation = 0 (1 samples)
Overall minimum injected packet rate = 0.602667 (1 samples)
Overall average injected packet rate = 0.650031 (1 samples)
Overall maximum injected packet rate = 0.693333 (1 samples)
Overall minimum accepted packet rate = 0.560667 (1 samples)
Overall average accepted packet rate = 0.650052 (1 samples)
Overall maximum accepted packet rate = 0.730667 (1 samples)
Overall minimum injected flit rate = 0.602667 (1 samples)
Overall average injected flit rate = 0.650031 (1 samples)
Overall maximum injected flit rate = 0.693333 (1 samples)
Overall minimum accepted flit rate = 0.560667 (1 samples)
Overall average accepted flit rate = 0.650052 (1 samples)
Overall maximum accepted flit rate = 0.730667 (1 samples)
Overall average injected packet size = 1 (1 samples)
Overall average accepted packet size = 1 (1 samples)
Overall average hops = 7.50015 (1 samples)
Total run time 2269.18
