BEGIN Configuration File: ./HC
injection_rate = 0.7;
traffic = uniform;
routing_function = dim_order;
vc_buf_size = 16;
topology = torus;
use_noc_latency = 0;
hold_switch_for_packet=0;

k = 2;
n = 13;

packet_size  = 1;
num_vcs      = 2;
vc_allocator = separable_input_first; 
sw_allocator = separable_input_first;

alloc_iters   = 1;
sample_period = 500;

wait_for_tail_credit = 0;
use_read_write       = 0;

credit_delay   = 2;
routing_delay  = 0;
vc_alloc_delay = 1;
sw_alloc_delay = 1;
st_final_delay = 1;

input_speedup     = 1;
output_speedup    = 1;
internal_speedup  = 2.0;

warmup_periods = 3;
sim_count      = 1;

priority = none;
injection_rate_uses_flits=1;

END Configuration File: ./HC
Number of nodes: 8192
Number of routers: 8192
0
Class 0:
Minimum packet latency = 5
Average packet latency = 26.1161
Maximum packet latency = 58
Minimum network latency = 5
Average network latency = 26.1161
Maximum network latency = 58
Slowest packet = 2236509
Minimum flit latency = 5
Average flit latency = 26.1161
Maximum flit latency = 58
Slowest flit = 2236509
Minimum fragmentation = 0
Average fragmentation = 0
Maximum fragmentation = 0
Minimum injected packet rate = 0.616 (at node 5117)
Average injected packet rate = 0.69983
Maximum injected packet rate = 0.778 (at node 1815)
Minimum accepted packet rate = 0.534 (at node 3366)
Average accepted packet rate = 0.663109
Maximum accepted packet rate = 0.81 (at node 7602)
Minimum injected flit rate = 0.616 (at node 5117)
Average injected flit rate = 0.69983
Maximum injected flit rate = 0.778 (at node 1815)
Minimum accepted flit rate = 0.534 (at node 3366)
Average accepted flit rate = 0.663109
Maximum accepted flit rate = 0.81 (at node 7602)
Average injected packet length = 1
Average accepted packet length = 1
Total in-flight flits = 150407 (0 measured)
latency change    = 1
throughput change = 1
0
Class 0:
Minimum packet latency = 5
Average packet latency = 26.1645
Maximum packet latency = 62
Minimum network latency = 5
Average network latency = 26.1645
Maximum network latency = 62
Slowest packet = 5335745
Minimum flit latency = 5
Average flit latency = 26.1645
Maximum flit latency = 62
Slowest flit = 5335745
Minimum fragmentation = 0
Average fragmentation = 0
Maximum fragmentation = 0
Minimum injected packet rate = 0.644 (at node 6140)
Average injected packet rate = 0.699834
Maximum injected packet rate = 0.749 (at node 6723)
Minimum accepted packet rate = 0.589 (at node 7668)
Average accepted packet rate = 0.681562
Maximum accepted packet rate = 0.765 (at node 628)
Minimum injected flit rate = 0.644 (at node 6140)
Average injected flit rate = 0.699834
Maximum injected flit rate = 0.749 (at node 6723)
Minimum accepted flit rate = 0.589 (at node 7668)
Average accepted flit rate = 0.681562
Maximum accepted flit rate = 0.765 (at node 628)
Average injected packet length = 1
Average accepted packet length = 1
Total in-flight flits = 149685 (0 measured)
latency change    = 0.00185111
throughput change = 0.0270739
0
Class 0:
Minimum packet latency = 5
Average packet latency = 26.2111
Maximum packet latency = 58
Minimum network latency = 5
Average network latency = 26.2111
Maximum network latency = 58
Slowest packet = 6388252
Minimum flit latency = 5
Average flit latency = 26.2111
Maximum flit latency = 58
Slowest flit = 6388252
Minimum fragmentation = 0
Average fragmentation = 0
Maximum fragmentation = 0
Minimum injected packet rate = 0.632 (at node 2059)
Average injected packet rate = 0.700036
Maximum injected packet rate = 0.768 (at node 1309)
Minimum accepted packet rate = 0.55 (at node 2378)
Average accepted packet rate = 0.699825
Maximum accepted packet rate = 0.834 (at node 2247)
Minimum injected flit rate = 0.632 (at node 2059)
Average injected flit rate = 0.700036
Maximum injected flit rate = 0.768 (at node 1309)
Minimum accepted flit rate = 0.55 (at node 2378)
Average accepted flit rate = 0.699825
Maximum accepted flit rate = 0.834 (at node 2247)
Average injected packet length = 1
Average accepted packet length = 1
Total in-flight flits = 150547 (0 measured)
latency change    = 0.0017782
throughput change = 0.0260976
Warmed up ...Time used is 1500 cycles
1
Class 0:
Minimum packet latency = 5
Average packet latency = 26.1405
Maximum packet latency = 58
Minimum network latency = 5
Average network latency = 26.1405
Maximum network latency = 58
Slowest packet = 8768617
Minimum flit latency = 5
Average flit latency = 26.2133
Maximum flit latency = 58
Slowest flit = 8768617
Minimum fragmentation = 0
Average fragmentation = 0
Maximum fragmentation = 0
Minimum injected packet rate = 0.626 (at node 3130)
Average injected packet rate = 0.699944
Maximum injected packet rate = 0.768 (at node 1134)
Minimum accepted packet rate = 0.57 (at node 3453)
Average accepted packet rate = 0.700019
Maximum accepted packet rate = 0.836 (at node 3027)
Minimum injected flit rate = 0.626 (at node 3130)
Average injected flit rate = 0.699944
Maximum injected flit rate = 0.768 (at node 1134)
Minimum accepted flit rate = 0.57 (at node 3453)
Average accepted flit rate = 0.700019
Maximum accepted flit rate = 0.836 (at node 3027)
Average injected packet length = 1
Average accepted packet length = 1
Total in-flight flits = 150241 (150241 measured)
latency change    = 0.00270082
throughput change = 0.00027622
1
Class 0:
Minimum packet latency = 5
Average packet latency = 26.1788
Maximum packet latency = 58
Minimum network latency = 5
Average network latency = 26.1788
Maximum network latency = 58
Slowest packet = 8768617
Minimum flit latency = 5
Average flit latency = 26.2142
Maximum flit latency = 58
Slowest flit = 8768617
Minimum fragmentation = 0
Average fragmentation = 0
Maximum fragmentation = 0
Minimum injected packet rate = 0.643 (at node 5423)
Average injected packet rate = 0.699994
Maximum injected packet rate = 0.756 (at node 136)
Minimum accepted packet rate = 0.609 (at node 4523)
Average accepted packet rate = 0.70004
Maximum accepted packet rate = 0.801 (at node 4986)
Minimum injected flit rate = 0.643 (at node 5423)
Average injected flit rate = 0.699994
Maximum injected flit rate = 0.756 (at node 136)
Minimum accepted flit rate = 0.609 (at node 4523)
Average accepted flit rate = 0.70004
Maximum accepted flit rate = 0.801 (at node 4986)
Average injected packet length = 1
Average accepted packet length = 1
Total in-flight flits = 150169 (150169 measured)
latency change    = 0.00146294
throughput change = 2.99927e-05
1
Class 0:
Minimum packet latency = 5
Average packet latency = 26.1912
Maximum packet latency = 59
Minimum network latency = 5
Average network latency = 26.1912
Maximum network latency = 59
Slowest packet = 14837548
Minimum flit latency = 5
Average flit latency = 26.2145
Maximum flit latency = 59
Slowest flit = 14837548
Minimum fragmentation = 0
Average fragmentation = 0
Maximum fragmentation = 0
Minimum injected packet rate = 0.654 (at node 5273)
Average injected packet rate = 0.700077
Maximum injected packet rate = 0.747333 (at node 4327)
Minimum accepted packet rate = 0.623333 (at node 1258)
Average accepted packet rate = 0.700087
Maximum accepted packet rate = 0.774667 (at node 354)
Minimum injected flit rate = 0.654 (at node 5273)
Average injected flit rate = 0.700077
Maximum injected flit rate = 0.747333 (at node 4327)
Minimum accepted flit rate = 0.623333 (at node 1258)
Average accepted flit rate = 0.700087
Maximum accepted flit rate = 0.774667 (at node 354)
Average injected packet length = 1
Average accepted packet length = 1
Total in-flight flits = 150428 (150428 measured)
latency change    = 0.000471914
throughput change = 6.6956e-05
Draining all recorded packets ...
Draining remaining packets ...
Time taken is 3097 cycles
====== Traffic class 0 ======
Overall minimum packet latency = 5 (1 samples)
Overall average packet latency = 26.2148 (1 samples)
Overall maximum packet latency = 59 (1 samples)
Overall minimum network latency = 5 (1 samples)
Overall average network latency = 26.2148 (1 samples)
Overall maximum network latency = 59 (1 samples)
Overall minimum flit latency = 5 (1 samples)
Overall average flit latency = 26.2333 (1 samples)
Overall maximum flit latency = 59 (1 samples)
Overall minimum fragmentation = 0 (1 samples)
Overall average fragmentation = 0 (1 samples)
Overall maximum fragmentation = 0 (1 samples)
Overall minimum injected packet rate = 0.654 (1 samples)
Overall average injected packet rate = 0.700077 (1 samples)
Overall maximum injected packet rate = 0.747333 (1 samples)
Overall minimum accepted packet rate = 0.623333 (1 samples)
Overall average accepted packet rate = 0.700087 (1 samples)
Overall maximum accepted packet rate = 0.774667 (1 samples)
Overall minimum injected flit rate = 0.654 (1 samples)
Overall average injected flit rate = 0.700077 (1 samples)
Overall maximum injected flit rate = 0.747333 (1 samples)
Overall minimum accepted flit rate = 0.623333 (1 samples)
Overall average accepted flit rate = 0.700087 (1 samples)
Overall maximum accepted flit rate = 0.774667 (1 samples)
Overall average injected packet size = 1 (1 samples)
Overall average accepted packet size = 1 (1 samples)
Overall average hops = 7.49948 (1 samples)
Total run time 10827.1
