BEGIN Configuration File: ./HC
injection_rate = 0.1;
traffic = uniform;
routing_function = dim_order;
vc_buf_size = 16;
topology = torus;
use_noc_latency = 0;
hold_switch_for_packet=0;

k = 2;
n = 13;

packet_size  = 1;
num_vcs      = 2;
vc_allocator = separable_input_first; 
sw_allocator = separable_input_first;

alloc_iters   = 1;
sample_period = 500;

wait_for_tail_credit = 0;
use_read_write       = 0;

credit_delay   = 2;
routing_delay  = 0;
vc_alloc_delay = 1;
sw_alloc_delay = 1;
st_final_delay = 1;

input_speedup     = 1;
output_speedup    = 1;
internal_speedup  = 2.0;

warmup_periods = 3;
sim_count      = 1;

priority = none;
injection_rate_uses_flits=1;

END Configuration File: ./HC
Number of nodes: 8192
Number of routers: 8192
0
Class 0:
Minimum packet latency = 5
Average packet latency = 24.5337
Maximum packet latency = 46
Minimum network latency = 5
Average network latency = 24.5337
Maximum network latency = 46
Slowest packet = 271981
Minimum flit latency = 5
Average flit latency = 24.5337
Maximum flit latency = 46
Slowest flit = 271981
Minimum fragmentation = 0
Average fragmentation = 0
Maximum fragmentation = 0
Minimum injected packet rate = 0.058 (at node 242)
Average injected packet rate = 0.0998809
Maximum injected packet rate = 0.158 (at node 5911)
Minimum accepted packet rate = 0.05 (at node 3538)
Average accepted packet rate = 0.0949277
Maximum accepted packet rate = 0.154 (at node 621)
Minimum injected flit rate = 0.058 (at node 242)
Average injected flit rate = 0.0998809
Maximum injected flit rate = 0.158 (at node 5911)
Minimum accepted flit rate = 0.05 (at node 3538)
Average accepted flit rate = 0.0949277
Maximum accepted flit rate = 0.154 (at node 621)
Average injected packet length = 1
Average accepted packet length = 1
Total in-flight flits = 20288 (0 measured)
latency change    = 1
throughput change = 1
0
Class 0:
Minimum packet latency = 5
Average packet latency = 24.5684
Maximum packet latency = 46
Minimum network latency = 5
Average network latency = 24.5684
Maximum network latency = 46
Slowest packet = 271981
Minimum flit latency = 5
Average flit latency = 24.5684
Maximum flit latency = 46
Slowest flit = 271981
Minimum fragmentation = 0
Average fragmentation = 0
Maximum fragmentation = 0
Minimum injected packet rate = 0.066 (at node 4326)
Average injected packet rate = 0.0999166
Maximum injected packet rate = 0.137 (at node 6882)
Minimum accepted packet rate = 0.061 (at node 2632)
Average accepted packet rate = 0.0974573
Maximum accepted packet rate = 0.137 (at node 6214)
Minimum injected flit rate = 0.066 (at node 4326)
Average injected flit rate = 0.0999166
Maximum injected flit rate = 0.137 (at node 6882)
Minimum accepted flit rate = 0.061 (at node 2632)
Average accepted flit rate = 0.0974573
Maximum accepted flit rate = 0.137 (at node 6214)
Average injected packet length = 1
Average accepted packet length = 1
Total in-flight flits = 20147 (0 measured)
latency change    = 0.00140919
throughput change = 0.0259554
0
Class 0:
Minimum packet latency = 5
Average packet latency = 24.6102
Maximum packet latency = 46
Minimum network latency = 5
Average network latency = 24.6102
Maximum network latency = 46
Slowest packet = 874309
Minimum flit latency = 5
Average flit latency = 24.6102
Maximum flit latency = 46
Slowest flit = 874309
Minimum fragmentation = 0
Average fragmentation = 0
Maximum fragmentation = 0
Minimum injected packet rate = 0.056 (at node 1989)
Average injected packet rate = 0.100041
Maximum injected packet rate = 0.158 (at node 6341)
Minimum accepted packet rate = 0.054 (at node 6515)
Average accepted packet rate = 0.100023
Maximum accepted packet rate = 0.164 (at node 5166)
Minimum injected flit rate = 0.056 (at node 1989)
Average injected flit rate = 0.100041
Maximum injected flit rate = 0.158 (at node 6341)
Minimum accepted flit rate = 0.054 (at node 6515)
Average accepted flit rate = 0.100023
Maximum accepted flit rate = 0.164 (at node 5166)
Average injected packet length = 1
Average accepted packet length = 1
Total in-flight flits = 20223 (0 measured)
latency change    = 0.00170026
throughput change = 0.0256485
Warmed up ...Time used is 1500 cycles
1
Class 0:
Minimum packet latency = 5
Average packet latency = 24.534
Maximum packet latency = 45
Minimum network latency = 5
Average network latency = 24.534
Maximum network latency = 45
Slowest packet = 1256091
Minimum flit latency = 5
Average flit latency = 24.596
Maximum flit latency = 45
Slowest flit = 1256091
Minimum fragmentation = 0
Average fragmentation = 0
Maximum fragmentation = 0
Minimum injected packet rate = 0.058 (at node 2158)
Average injected packet rate = 0.0998091
Maximum injected packet rate = 0.156 (at node 6323)
Minimum accepted packet rate = 0.052 (at node 6507)
Average accepted packet rate = 0.0998066
Maximum accepted packet rate = 0.16 (at node 6383)
Minimum injected flit rate = 0.058 (at node 2158)
Average injected flit rate = 0.0998091
Maximum injected flit rate = 0.156 (at node 6323)
Minimum accepted flit rate = 0.052 (at node 6507)
Average accepted flit rate = 0.0998066
Maximum accepted flit rate = 0.16 (at node 6383)
Average injected packet length = 1
Average accepted packet length = 1
Total in-flight flits = 20233 (20233 measured)
latency change    = 0.00310627
throughput change = 0.00216483
1
Class 0:
Minimum packet latency = 5
Average packet latency = 24.5705
Maximum packet latency = 45
Minimum network latency = 5
Average network latency = 24.5705
Maximum network latency = 45
Slowest packet = 1256091
Minimum flit latency = 5
Average flit latency = 24.6006
Maximum flit latency = 45
Slowest flit = 1256091
Minimum fragmentation = 0
Average fragmentation = 0
Maximum fragmentation = 0
Minimum injected packet rate = 0.066 (at node 2158)
Average injected packet rate = 0.0999216
Maximum injected packet rate = 0.144 (at node 1986)
Minimum accepted packet rate = 0.065 (at node 788)
Average accepted packet rate = 0.0999559
Maximum accepted packet rate = 0.138 (at node 2552)
Minimum injected flit rate = 0.066 (at node 2158)
Average injected flit rate = 0.0999216
Maximum injected flit rate = 0.144 (at node 1986)
Minimum accepted flit rate = 0.065 (at node 788)
Average accepted flit rate = 0.0999559
Maximum accepted flit rate = 0.138 (at node 2552)
Average injected packet length = 1
Average accepted packet length = 1
Total in-flight flits = 19942 (19942 measured)
latency change    = 0.00148707
throughput change = 0.00149358
1
Class 0:
Minimum packet latency = 5
Average packet latency = 24.5841
Maximum packet latency = 45
Minimum network latency = 5
Average network latency = 24.5841
Maximum network latency = 45
Slowest packet = 1256091
Minimum flit latency = 5
Average flit latency = 24.6039
Maximum flit latency = 45
Slowest flit = 1256091
Minimum fragmentation = 0
Average fragmentation = 0
Maximum fragmentation = 0
Minimum injected packet rate = 0.0733333 (at node 2158)
Average injected packet rate = 0.100033
Maximum injected packet rate = 0.132667 (at node 1986)
Minimum accepted packet rate = 0.07 (at node 6647)
Average accepted packet rate = 0.100023
Maximum accepted packet rate = 0.132667 (at node 7539)
Minimum injected flit rate = 0.0733333 (at node 2158)
Average injected flit rate = 0.100033
Maximum injected flit rate = 0.132667 (at node 1986)
Minimum accepted flit rate = 0.07 (at node 6647)
Average accepted flit rate = 0.100023
Maximum accepted flit rate = 0.132667 (at node 7539)
Average injected packet length = 1
Average accepted packet length = 1
Total in-flight flits = 20349 (20349 measured)
latency change    = 0.000551387
throughput change = 0.00066676
Draining all recorded packets ...
Draining remaining packets ...
Time taken is 3090 cycles
====== Traffic class 0 ======
Overall minimum packet latency = 5 (1 samples)
Overall average packet latency = 24.6038 (1 samples)
Overall maximum packet latency = 45 (1 samples)
Overall minimum network latency = 5 (1 samples)
Overall average network latency = 24.6038 (1 samples)
Overall maximum network latency = 45 (1 samples)
Overall minimum flit latency = 5 (1 samples)
Overall average flit latency = 24.6214 (1 samples)
Overall maximum flit latency = 45 (1 samples)
Overall minimum fragmentation = 0 (1 samples)
Overall average fragmentation = 0 (1 samples)
Overall maximum fragmentation = 0 (1 samples)
Overall minimum injected packet rate = 0.0733333 (1 samples)
Overall average injected packet rate = 0.100033 (1 samples)
Overall maximum injected packet rate = 0.132667 (1 samples)
Overall minimum accepted packet rate = 0.07 (1 samples)
Overall average accepted packet rate = 0.100023 (1 samples)
Overall maximum accepted packet rate = 0.132667 (1 samples)
Overall minimum injected flit rate = 0.0733333 (1 samples)
Overall average injected flit rate = 0.100033 (1 samples)
Overall maximum injected flit rate = 0.132667 (1 samples)
Overall minimum accepted flit rate = 0.07 (1 samples)
Overall average accepted flit rate = 0.100023 (1 samples)
Overall maximum accepted flit rate = 0.132667 (1 samples)
Overall average injected packet size = 1 (1 samples)
Overall average accepted packet size = 1 (1 samples)
Overall average hops = 7.4993 (1 samples)
Total run time 897.381
