BEGIN Configuration File: ./HC
injection_rate = 0.5;
traffic = uniform;
routing_function = dim_order;
vc_buf_size = 16;
topology = torus;
use_noc_latency = 0;
hold_switch_for_packet=0;

k = 2;
n = 13;

packet_size  = 1;
num_vcs      = 2;
vc_allocator = separable_input_first; 
sw_allocator = separable_input_first;

alloc_iters   = 1;
sample_period = 500;

wait_for_tail_credit = 0;
use_read_write       = 0;

credit_delay   = 2;
routing_delay  = 0;
vc_alloc_delay = 1;
sw_alloc_delay = 1;
st_final_delay = 1;

input_speedup     = 1;
output_speedup    = 1;
internal_speedup  = 2.0;

warmup_periods = 3;
sim_count      = 1;

priority = none;
injection_rate_uses_flits=1;

END Configuration File: ./HC
Number of nodes: 8192
Number of routers: 8192
0
Class 0:
Minimum packet latency = 5
Average packet latency = 25.257
Maximum packet latency = 52
Minimum network latency = 5
Average network latency = 25.257
Maximum network latency = 52
Slowest packet = 570148
Minimum flit latency = 5
Average flit latency = 25.257
Maximum flit latency = 52
Slowest flit = 570148
Minimum fragmentation = 0
Average fragmentation = 0
Maximum fragmentation = 0
Minimum injected packet rate = 0.416 (at node 124)
Average injected packet rate = 0.499673
Maximum injected packet rate = 0.582 (at node 7316)
Minimum accepted packet rate = 0.364 (at node 5522)
Average accepted packet rate = 0.474279
Maximum accepted packet rate = 0.602 (at node 1591)
Minimum injected flit rate = 0.416 (at node 124)
Average injected flit rate = 0.499673
Maximum injected flit rate = 0.582 (at node 7316)
Minimum accepted flit rate = 0.364 (at node 5522)
Average accepted flit rate = 0.474279
Maximum accepted flit rate = 0.602 (at node 1591)
Average injected packet length = 1
Average accepted packet length = 1
Total in-flight flits = 104016 (0 measured)
latency change    = 1
throughput change = 1
0
Class 0:
Minimum packet latency = 5
Average packet latency = 25.2958
Maximum packet latency = 52
Minimum network latency = 5
Average network latency = 25.2958
Maximum network latency = 52
Slowest packet = 570148
Minimum flit latency = 5
Average flit latency = 25.2958
Maximum flit latency = 52
Slowest flit = 570148
Minimum fragmentation = 0
Average fragmentation = 0
Maximum fragmentation = 0
Minimum injected packet rate = 0.434 (at node 4299)
Average injected packet rate = 0.49985
Maximum injected packet rate = 0.556 (at node 7316)
Minimum accepted packet rate = 0.41 (at node 1739)
Average accepted packet rate = 0.487253
Maximum accepted packet rate = 0.573 (at node 339)
Minimum injected flit rate = 0.434 (at node 4299)
Average injected flit rate = 0.49985
Maximum injected flit rate = 0.556 (at node 7316)
Minimum accepted flit rate = 0.41 (at node 1739)
Average accepted flit rate = 0.487253
Maximum accepted flit rate = 0.573 (at node 339)
Average injected packet length = 1
Average accepted packet length = 1
Total in-flight flits = 103195 (0 measured)
latency change    = 0.0015359
throughput change = 0.0266286
0
Class 0:
Minimum packet latency = 5
Average packet latency = 25.3348
Maximum packet latency = 51
Minimum network latency = 5
Average network latency = 25.3348
Maximum network latency = 51
Slowest packet = 4238186
Minimum flit latency = 5
Average flit latency = 25.3348
Maximum flit latency = 51
Slowest flit = 4238186
Minimum fragmentation = 0
Average fragmentation = 0
Maximum fragmentation = 0
Minimum injected packet rate = 0.406 (at node 3237)
Average injected packet rate = 0.499993
Maximum injected packet rate = 0.576 (at node 5070)
Minimum accepted packet rate = 0.38 (at node 7005)
Average accepted packet rate = 0.499787
Maximum accepted packet rate = 0.636 (at node 7391)
Minimum injected flit rate = 0.406 (at node 3237)
Average injected flit rate = 0.499993
Maximum injected flit rate = 0.576 (at node 5070)
Minimum accepted flit rate = 0.38 (at node 7005)
Average accepted flit rate = 0.499787
Maximum accepted flit rate = 0.636 (at node 7391)
Average injected packet length = 1
Average accepted packet length = 1
Total in-flight flits = 104036 (0 measured)
latency change    = 0.00153785
throughput change = 0.0250785
Warmed up ...Time used is 1500 cycles
1
Class 0:
Minimum packet latency = 5
Average packet latency = 25.2748
Maximum packet latency = 50
Minimum network latency = 5
Average network latency = 25.2748
Maximum network latency = 50
Slowest packet = 7301935
Minimum flit latency = 5
Average flit latency = 25.3412
Maximum flit latency = 50
Slowest flit = 7301935
Minimum fragmentation = 0
Average fragmentation = 0
Maximum fragmentation = 0
Minimum injected packet rate = 0.416 (at node 119)
Average injected packet rate = 0.499688
Maximum injected packet rate = 0.582 (at node 3845)
Minimum accepted packet rate = 0.374 (at node 678)
Average accepted packet rate = 0.499821
Maximum accepted packet rate = 0.622 (at node 5939)
Minimum injected flit rate = 0.416 (at node 119)
Average injected flit rate = 0.499688
Maximum injected flit rate = 0.582 (at node 3845)
Minimum accepted flit rate = 0.374 (at node 678)
Average accepted flit rate = 0.499821
Maximum accepted flit rate = 0.622 (at node 5939)
Average injected packet length = 1
Average accepted packet length = 1
Total in-flight flits = 103493 (103493 measured)
latency change    = 0.00237337
throughput change = 6.69185e-05
1
Class 0:
Minimum packet latency = 5
Average packet latency = 25.3064
Maximum packet latency = 53
Minimum network latency = 5
Average network latency = 25.3064
Maximum network latency = 53
Slowest packet = 9055503
Minimum flit latency = 5
Average flit latency = 25.3388
Maximum flit latency = 53
Slowest flit = 9055503
Minimum fragmentation = 0
Average fragmentation = 0
Maximum fragmentation = 0
Minimum injected packet rate = 0.432 (at node 4383)
Average injected packet rate = 0.499945
Maximum injected packet rate = 0.561 (at node 2470)
Minimum accepted packet rate = 0.414 (at node 678)
Average accepted packet rate = 0.499992
Maximum accepted packet rate = 0.592 (at node 7763)
Minimum injected flit rate = 0.432 (at node 4383)
Average injected flit rate = 0.499945
Maximum injected flit rate = 0.561 (at node 2470)
Minimum accepted flit rate = 0.414 (at node 678)
Average accepted flit rate = 0.499992
Maximum accepted flit rate = 0.592 (at node 7763)
Average injected packet length = 1
Average accepted packet length = 1
Total in-flight flits = 103655 (103655 measured)
latency change    = 0.00124969
throughput change = 0.000342291
1
Class 0:
Minimum packet latency = 5
Average packet latency = 25.3123
Maximum packet latency = 53
Minimum network latency = 5
Average network latency = 25.3123
Maximum network latency = 53
Slowest packet = 9055503
Minimum flit latency = 5
Average flit latency = 25.3338
Maximum flit latency = 53
Slowest flit = 9055503
Minimum fragmentation = 0
Average fragmentation = 0
Maximum fragmentation = 0
Minimum injected packet rate = 0.444 (at node 4355)
Average injected packet rate = 0.500058
Maximum injected packet rate = 0.551333 (at node 5611)
Minimum accepted packet rate = 0.428667 (at node 678)
Average accepted packet rate = 0.500081
Maximum accepted packet rate = 0.585333 (at node 7763)
Minimum injected flit rate = 0.444 (at node 4355)
Average injected flit rate = 0.500058
Maximum injected flit rate = 0.551333 (at node 5611)
Minimum accepted flit rate = 0.428667 (at node 678)
Average accepted flit rate = 0.500081
Maximum accepted flit rate = 0.585333 (at node 7763)
Average injected packet length = 1
Average accepted packet length = 1
Total in-flight flits = 103750 (103750 measured)
latency change    = 0.000233651
throughput change = 0.000178845
Draining all recorded packets ...
Draining remaining packets ...
Time taken is 3091 cycles
====== Traffic class 0 ======
Overall minimum packet latency = 5 (1 samples)
Overall average packet latency = 25.3338 (1 samples)
Overall maximum packet latency = 53 (1 samples)
Overall minimum network latency = 5 (1 samples)
Overall average network latency = 25.3338 (1 samples)
Overall maximum network latency = 53 (1 samples)
Overall minimum flit latency = 5 (1 samples)
Overall average flit latency = 25.3526 (1 samples)
Overall maximum flit latency = 53 (1 samples)
Overall minimum fragmentation = 0 (1 samples)
Overall average fragmentation = 0 (1 samples)
Overall maximum fragmentation = 0 (1 samples)
Overall minimum injected packet rate = 0.444 (1 samples)
Overall average injected packet rate = 0.500058 (1 samples)
Overall maximum injected packet rate = 0.551333 (1 samples)
Overall minimum accepted packet rate = 0.428667 (1 samples)
Overall average accepted packet rate = 0.500081 (1 samples)
Overall maximum accepted packet rate = 0.585333 (1 samples)
Overall minimum injected flit rate = 0.444 (1 samples)
Overall average injected flit rate = 0.500058 (1 samples)
Overall maximum injected flit rate = 0.551333 (1 samples)
Overall minimum accepted flit rate = 0.428667 (1 samples)
Overall average accepted flit rate = 0.500081 (1 samples)
Overall maximum accepted flit rate = 0.585333 (1 samples)
Overall average injected packet size = 1 (1 samples)
Overall average accepted packet size = 1 (1 samples)
Overall average hops = 7.49991 (1 samples)
Total run time 1939.09
