BEGIN Configuration File: ./HC
injection_rate = 0.01;
traffic = uniform;
routing_function = dim_order;
vc_buf_size = 16;
topology = torus;
use_noc_latency = 0;
hold_switch_for_packet=0;

k = 2;
n = 13;

packet_size  = 1;
num_vcs      = 2;
vc_allocator = separable_input_first; 
sw_allocator = separable_input_first;

alloc_iters   = 1;
sample_period = 500;

wait_for_tail_credit = 0;
use_read_write       = 0;

credit_delay   = 2;
routing_delay  = 0;
vc_alloc_delay = 1;
sw_alloc_delay = 1;
st_final_delay = 1;

input_speedup     = 1;
output_speedup    = 1;
internal_speedup  = 2.0;

warmup_periods = 3;
sim_count      = 1;

priority = none;
injection_rate_uses_flits=1;

END Configuration File: ./HC
Number of nodes: 8192
Number of routers: 8192
0
Class 0:
Minimum packet latency = 5
Average packet latency = 24.4622
Maximum packet latency = 44
Minimum network latency = 5
Average network latency = 24.4622
Maximum network latency = 44
Slowest packet = 5960
Minimum flit latency = 5
Average flit latency = 24.4622
Maximum flit latency = 44
Slowest flit = 5960
Minimum fragmentation = 0
Average fragmentation = 0
Maximum fragmentation = 0
Minimum injected packet rate = 0 (at node 101)
Average injected packet rate = 0.0100149
Maximum injected packet rate = 0.03 (at node 2725)
Minimum accepted packet rate = 0 (at node 144)
Average accepted packet rate = 0.00950391
Maximum accepted packet rate = 0.028 (at node 5770)
Minimum injected flit rate = 0 (at node 101)
Average injected flit rate = 0.0100149
Maximum injected flit rate = 0.03 (at node 2725)
Minimum accepted flit rate = 0 (at node 144)
Average accepted flit rate = 0.00950391
Maximum accepted flit rate = 0.028 (at node 5770)
Average injected packet length = 1
Average accepted packet length = 1
Total in-flight flits = 2093 (0 measured)
latency change    = 1
throughput change = 1
0
Class 0:
Minimum packet latency = 5
Average packet latency = 24.4867
Maximum packet latency = 44
Minimum network latency = 5
Average network latency = 24.4867
Maximum network latency = 44
Slowest packet = 5960
Minimum flit latency = 5
Average flit latency = 24.4867
Maximum flit latency = 44
Slowest flit = 5960
Minimum fragmentation = 0
Average fragmentation = 0
Maximum fragmentation = 0
Minimum injected packet rate = 0.001 (at node 1916)
Average injected packet rate = 0.0100062
Maximum injected packet rate = 0.024 (at node 3728)
Minimum accepted packet rate = 0.001 (at node 862)
Average accepted packet rate = 0.0097616
Maximum accepted packet rate = 0.024 (at node 8000)
Minimum injected flit rate = 0.001 (at node 1916)
Average injected flit rate = 0.0100062
Maximum injected flit rate = 0.024 (at node 3728)
Minimum accepted flit rate = 0.001 (at node 862)
Average accepted flit rate = 0.0097616
Maximum accepted flit rate = 0.024 (at node 8000)
Average injected packet length = 1
Average accepted packet length = 1
Total in-flight flits = 2004 (0 measured)
latency change    = 0.00100163
throughput change = 0.0263984
0
Class 0:
Minimum packet latency = 5
Average packet latency = 24.52
Maximum packet latency = 44
Minimum network latency = 5
Average network latency = 24.52
Maximum network latency = 44
Slowest packet = 83079
Minimum flit latency = 5
Average flit latency = 24.52
Maximum flit latency = 44
Slowest flit = 83079
Minimum fragmentation = 0
Average fragmentation = 0
Maximum fragmentation = 0
Minimum injected packet rate = 0 (at node 60)
Average injected packet rate = 0.0099707
Maximum injected packet rate = 0.03 (at node 5034)
Minimum accepted packet rate = 0 (at node 191)
Average accepted packet rate = 0.00999121
Maximum accepted packet rate = 0.032 (at node 2304)
Minimum injected flit rate = 0 (at node 60)
Average injected flit rate = 0.0099707
Maximum injected flit rate = 0.03 (at node 5034)
Minimum accepted flit rate = 0 (at node 191)
Average accepted flit rate = 0.00999121
Maximum accepted flit rate = 0.032 (at node 2304)
Average injected packet length = 1
Average accepted packet length = 1
Total in-flight flits = 1920 (0 measured)
latency change    = 0.00135805
throughput change = 0.0229816
Warmed up ...Time used is 1500 cycles
1
Class 0:
Minimum packet latency = 5
Average packet latency = 24.4574
Maximum packet latency = 44
Minimum network latency = 5
Average network latency = 24.4574
Maximum network latency = 44
Slowest packet = 125700
Minimum flit latency = 5
Average flit latency = 24.5107
Maximum flit latency = 44
Slowest flit = 125700
Minimum fragmentation = 0
Average fragmentation = 0
Maximum fragmentation = 0
Minimum injected packet rate = 0 (at node 413)
Average injected packet rate = 0.00998193
Maximum injected packet rate = 0.03 (at node 3623)
Minimum accepted packet rate = 0 (at node 165)
Average accepted packet rate = 0.00997559
Maximum accepted packet rate = 0.03 (at node 2247)
Minimum injected flit rate = 0 (at node 413)
Average injected flit rate = 0.00998193
Maximum injected flit rate = 0.03 (at node 3623)
Minimum accepted flit rate = 0 (at node 165)
Average accepted flit rate = 0.00997559
Maximum accepted flit rate = 0.03 (at node 2247)
Average injected packet length = 1
Average accepted packet length = 1
Total in-flight flits = 1946 (1946 measured)
latency change    = 0.00255813
throughput change = 0.00156632
1
Class 0:
Minimum packet latency = 5
Average packet latency = 24.4872
Maximum packet latency = 44
Minimum network latency = 5
Average network latency = 24.4872
Maximum network latency = 44
Slowest packet = 125700
Minimum flit latency = 5
Average flit latency = 24.5129
Maximum flit latency = 44
Slowest flit = 125700
Minimum fragmentation = 0
Average fragmentation = 0
Maximum fragmentation = 0
Minimum injected packet rate = 0.001 (at node 2560)
Average injected packet rate = 0.0100521
Maximum injected packet rate = 0.023 (at node 1108)
Minimum accepted packet rate = 0 (at node 2608)
Average accepted packet rate = 0.0100404
Maximum accepted packet rate = 0.023 (at node 2468)
Minimum injected flit rate = 0.001 (at node 2560)
Average injected flit rate = 0.0100521
Maximum injected flit rate = 0.023 (at node 1108)
Minimum accepted flit rate = 0 (at node 2608)
Average accepted flit rate = 0.0100404
Maximum accepted flit rate = 0.023 (at node 2468)
Average injected packet length = 1
Average accepted packet length = 1
Total in-flight flits = 2016 (2016 measured)
latency change    = 0.00121337
throughput change = 0.00645585
1
Class 0:
Minimum packet latency = 5
Average packet latency = 24.4975
Maximum packet latency = 44
Minimum network latency = 5
Average network latency = 24.4975
Maximum network latency = 44
Slowest packet = 125700
Minimum flit latency = 5
Average flit latency = 24.5146
Maximum flit latency = 44
Slowest flit = 125700
Minimum fragmentation = 0
Average fragmentation = 0
Maximum fragmentation = 0
Minimum injected packet rate = 0.002 (at node 3072)
Average injected packet rate = 0.0100244
Maximum injected packet rate = 0.0213333 (at node 3939)
Minimum accepted packet rate = 0.00133333 (at node 2608)
Average accepted packet rate = 0.0100107
Maximum accepted packet rate = 0.0213333 (at node 997)
Minimum injected flit rate = 0.002 (at node 3072)
Average injected flit rate = 0.0100244
Maximum injected flit rate = 0.0213333 (at node 3939)
Minimum accepted flit rate = 0.00133333 (at node 2608)
Average accepted flit rate = 0.0100107
Maximum accepted flit rate = 0.0213333 (at node 997)
Average injected packet length = 1
Average accepted packet length = 1
Total in-flight flits = 2089 (2089 measured)
latency change    = 0.00042286
throughput change = 0.00297128
Draining all recorded packets ...
Draining remaining packets ...
Time taken is 3080 cycles
====== Traffic class 0 ======
Overall minimum packet latency = 5 (1 samples)
Overall average packet latency = 24.5149 (1 samples)
Overall maximum packet latency = 44 (1 samples)
Overall minimum network latency = 5 (1 samples)
Overall average network latency = 24.5149 (1 samples)
Overall maximum network latency = 44 (1 samples)
Overall minimum flit latency = 5 (1 samples)
Overall average flit latency = 24.5286 (1 samples)
Overall maximum flit latency = 44 (1 samples)
Overall minimum fragmentation = 0 (1 samples)
Overall average fragmentation = 0 (1 samples)
Overall maximum fragmentation = 0 (1 samples)
Overall minimum injected packet rate = 0.002 (1 samples)
Overall average injected packet rate = 0.0100244 (1 samples)
Overall maximum injected packet rate = 0.0213333 (1 samples)
Overall minimum accepted packet rate = 0.00133333 (1 samples)
Overall average accepted packet rate = 0.0100107 (1 samples)
Overall maximum accepted packet rate = 0.0213333 (1 samples)
Overall minimum injected flit rate = 0.002 (1 samples)
Overall average injected flit rate = 0.0100244 (1 samples)
Overall maximum injected flit rate = 0.0213333 (1 samples)
Overall minimum accepted flit rate = 0.00133333 (1 samples)
Overall average accepted flit rate = 0.0100107 (1 samples)
Overall maximum accepted flit rate = 0.0213333 (1 samples)
Overall average injected packet size = 1 (1 samples)
Overall average accepted packet size = 1 (1 samples)
Overall average hops = 7.50177 (1 samples)
Total run time 3960.29
