BEGIN Configuration File: ./HC
injection_rate = 0.85;
traffic = uniform;
routing_function = dim_order;
vc_buf_size = 16;
topology = torus;
use_noc_latency = 0;
hold_switch_for_packet=0;

k = 2;
n = 13;

packet_size  = 1;
num_vcs      = 2;
vc_allocator = separable_input_first; 
sw_allocator = separable_input_first;

alloc_iters   = 1;
sample_period = 500;

wait_for_tail_credit = 0;
use_read_write       = 0;

credit_delay   = 2;
routing_delay  = 0;
vc_alloc_delay = 1;
sw_alloc_delay = 1;
st_final_delay = 1;

input_speedup     = 1;
output_speedup    = 1;
internal_speedup  = 2.0;

warmup_periods = 3;
sim_count      = 1;

priority = none;
injection_rate_uses_flits=1;

END Configuration File: ./HC
Number of nodes: 8192
Number of routers: 8192
0
Class 0:
Minimum packet latency = 5
Average packet latency = 27.8339
Maximum packet latency = 72
Minimum network latency = 5
Average network latency = 27.8339
Maximum network latency = 72
Slowest packet = 908849
Minimum flit latency = 5
Average flit latency = 27.8339
Maximum flit latency = 72
Slowest flit = 908849
Minimum fragmentation = 0
Average fragmentation = 0
Maximum fragmentation = 0
Minimum injected packet rate = 0.784 (at node 5117)
Average injected packet rate = 0.849808
Maximum injected packet rate = 0.908 (at node 7128)
Minimum accepted packet rate = 0.668 (at node 7958)
Average accepted packet rate = 0.802071
Maximum accepted packet rate = 0.942 (at node 6502)
Minimum injected flit rate = 0.784 (at node 5117)
Average injected flit rate = 0.849808
Maximum injected flit rate = 0.908 (at node 7128)
Minimum accepted flit rate = 0.668 (at node 7958)
Average accepted flit rate = 0.802071
Maximum accepted flit rate = 0.942 (at node 6502)
Average injected packet length = 1
Average accepted packet length = 1
Total in-flight flits = 195529 (0 measured)
latency change    = 1
throughput change = 1
0
Class 0:
Minimum packet latency = 5
Average packet latency = 27.9708
Maximum packet latency = 88
Minimum network latency = 5
Average network latency = 27.9708
Maximum network latency = 88
Slowest packet = 4264977
Minimum flit latency = 5
Average flit latency = 27.9708
Maximum flit latency = 88
Slowest flit = 4264977
Minimum fragmentation = 0
Average fragmentation = 0
Maximum fragmentation = 0
Minimum injected packet rate = 0.806 (at node 2823)
Average injected packet rate = 0.849937
Maximum injected packet rate = 0.89 (at node 2171)
Minimum accepted packet rate = 0.723 (at node 7958)
Average accepted packet rate = 0.826098
Maximum accepted packet rate = 0.929 (at node 5462)
Minimum injected flit rate = 0.806 (at node 2823)
Average injected flit rate = 0.849937
Maximum injected flit rate = 0.89 (at node 2171)
Minimum accepted flit rate = 0.723 (at node 7958)
Average accepted flit rate = 0.826098
Maximum accepted flit rate = 0.929 (at node 5462)
Average injected packet length = 1
Average accepted packet length = 1
Total in-flight flits = 195287 (0 measured)
latency change    = 0.00489758
throughput change = 0.029085
0
Class 0:
Minimum packet latency = 5
Average packet latency = 28.1057
Maximum packet latency = 79
Minimum network latency = 5
Average network latency = 28.1057
Maximum network latency = 79
Slowest packet = 9327210
Minimum flit latency = 5
Average flit latency = 28.1057
Maximum flit latency = 79
Slowest flit = 9327210
Minimum fragmentation = 0
Average fragmentation = 0
Maximum fragmentation = 0
Minimum injected packet rate = 0.792 (at node 653)
Average injected packet rate = 0.85005
Maximum injected packet rate = 0.902 (at node 3159)
Minimum accepted packet rate = 0.696 (at node 4369)
Average accepted packet rate = 0.849922
Maximum accepted packet rate = 0.996 (at node 4818)
Minimum injected flit rate = 0.792 (at node 653)
Average injected flit rate = 0.85005
Maximum injected flit rate = 0.902 (at node 3159)
Minimum accepted flit rate = 0.696 (at node 4369)
Average accepted flit rate = 0.849922
Maximum accepted flit rate = 0.996 (at node 4818)
Average injected packet length = 1
Average accepted packet length = 1
Total in-flight flits = 195809 (0 measured)
latency change    = 0.00479839
throughput change = 0.0280308
Warmed up ...Time used is 1500 cycles
1
Class 0:
Minimum packet latency = 5
Average packet latency = 27.9824
Maximum packet latency = 94
Minimum network latency = 5
Average network latency = 27.9824
Maximum network latency = 94
Slowest packet = 10886437
Minimum flit latency = 5
Average flit latency = 28.0758
Maximum flit latency = 94
Slowest flit = 10886437
Minimum fragmentation = 0
Average fragmentation = 0
Maximum fragmentation = 0
Minimum injected packet rate = 0.786 (at node 7010)
Average injected packet rate = 0.849987
Maximum injected packet rate = 0.908 (at node 5480)
Minimum accepted packet rate = 0.704 (at node 4751)
Average accepted packet rate = 0.850144
Maximum accepted packet rate = 0.986 (at node 6803)
Minimum injected flit rate = 0.786 (at node 7010)
Average injected flit rate = 0.849987
Maximum injected flit rate = 0.908 (at node 5480)
Minimum accepted flit rate = 0.704 (at node 4751)
Average accepted flit rate = 0.850144
Maximum accepted flit rate = 0.986 (at node 6803)
Average injected packet length = 1
Average accepted packet length = 1
Total in-flight flits = 195167 (195167 measured)
latency change    = 0.00440649
throughput change = 0.000260756
1
Class 0:
Minimum packet latency = 5
Average packet latency = 28.0435
Maximum packet latency = 94
Minimum network latency = 5
Average network latency = 28.0435
Maximum network latency = 94
Slowest packet = 10886437
Minimum flit latency = 5
Average flit latency = 28.0885
Maximum flit latency = 94
Slowest flit = 10886437
Minimum fragmentation = 0
Average fragmentation = 0
Maximum fragmentation = 0
Minimum injected packet rate = 0.807 (at node 3052)
Average injected packet rate = 0.8501
Maximum injected packet rate = 0.889 (at node 4253)
Minimum accepted packet rate = 0.731 (at node 2707)
Average accepted packet rate = 0.850052
Maximum accepted packet rate = 0.959 (at node 862)
Minimum injected flit rate = 0.807 (at node 3052)
Average injected flit rate = 0.8501
Maximum injected flit rate = 0.889 (at node 4253)
Minimum accepted flit rate = 0.731 (at node 2707)
Average accepted flit rate = 0.850052
Maximum accepted flit rate = 0.959 (at node 862)
Average injected packet length = 1
Average accepted packet length = 1
Total in-flight flits = 196206 (196206 measured)
latency change    = 0.00218033
throughput change = 0.00010799
1
Class 0:
Minimum packet latency = 5
Average packet latency = 28.0662
Maximum packet latency = 94
Minimum network latency = 5
Average network latency = 28.0662
Maximum network latency = 94
Slowest packet = 10886437
Minimum flit latency = 5
Average flit latency = 28.0958
Maximum flit latency = 94
Slowest flit = 10886437
Minimum fragmentation = 0
Average fragmentation = 0
Maximum fragmentation = 0
Minimum injected packet rate = 0.815333 (at node 1557)
Average injected packet rate = 0.850071
Maximum injected packet rate = 0.884667 (at node 2085)
Minimum accepted packet rate = 0.768 (at node 2502)
Average accepted packet rate = 0.850055
Maximum accepted packet rate = 0.933333 (at node 5034)
Minimum injected flit rate = 0.815333 (at node 1557)
Average injected flit rate = 0.850071
Maximum injected flit rate = 0.884667 (at node 2085)
Minimum accepted flit rate = 0.768 (at node 2502)
Average accepted flit rate = 0.850055
Maximum accepted flit rate = 0.933333 (at node 5034)
Average injected packet length = 1
Average accepted packet length = 1
Total in-flight flits = 196008 (196008 measured)
latency change    = 0.000806998
throughput change = 3.44647e-06
Draining all recorded packets ...
Draining remaining packets ...
Time taken is 3119 cycles
====== Traffic class 0 ======
Overall minimum packet latency = 5 (1 samples)
Overall average packet latency = 28.0966 (1 samples)
Overall maximum packet latency = 94 (1 samples)
Overall minimum network latency = 5 (1 samples)
Overall average network latency = 28.0966 (1 samples)
Overall maximum network latency = 94 (1 samples)
Overall minimum flit latency = 5 (1 samples)
Overall average flit latency = 28.1195 (1 samples)
Overall maximum flit latency = 94 (1 samples)
Overall minimum fragmentation = 0 (1 samples)
Overall average fragmentation = 0 (1 samples)
Overall maximum fragmentation = 0 (1 samples)
Overall minimum injected packet rate = 0.815333 (1 samples)
Overall average injected packet rate = 0.850071 (1 samples)
Overall maximum injected packet rate = 0.884667 (1 samples)
Overall minimum accepted packet rate = 0.768 (1 samples)
Overall average accepted packet rate = 0.850055 (1 samples)
Overall maximum accepted packet rate = 0.933333 (1 samples)
Overall minimum injected flit rate = 0.815333 (1 samples)
Overall average injected flit rate = 0.850071 (1 samples)
Overall maximum injected flit rate = 0.884667 (1 samples)
Overall minimum accepted flit rate = 0.768 (1 samples)
Overall average accepted flit rate = 0.850055 (1 samples)
Overall maximum accepted flit rate = 0.933333 (1 samples)
Overall average injected packet size = 1 (1 samples)
Overall average accepted packet size = 1 (1 samples)
Overall average hops = 7.49944 (1 samples)
Total run time 2726.72
