BEGIN Configuration File: ./HC
injection_rate = 0.2;
traffic = uniform;
routing_function = dim_order;
vc_buf_size = 16;
topology = torus;
use_noc_latency = 0;
hold_switch_for_packet=0;

k = 2;
n = 13;

packet_size  = 1;
num_vcs      = 2;
vc_allocator = separable_input_first; 
sw_allocator = separable_input_first;

alloc_iters   = 1;
sample_period = 500;

wait_for_tail_credit = 0;
use_read_write       = 0;

credit_delay   = 2;
routing_delay  = 0;
vc_alloc_delay = 1;
sw_alloc_delay = 1;
st_final_delay = 1;

input_speedup     = 1;
output_speedup    = 1;
internal_speedup  = 2.0;

warmup_periods = 3;
sim_count      = 1;

priority = none;
injection_rate_uses_flits=1;

END Configuration File: ./HC
Number of nodes: 8192
Number of routers: 8192
0
Class 0:
Minimum packet latency = 5
Average packet latency = 24.6645
Maximum packet latency = 47
Minimum network latency = 5
Average network latency = 24.6645
Maximum network latency = 47
Slowest packet = 740634
Minimum flit latency = 5
Average flit latency = 24.6645
Maximum flit latency = 47
Slowest flit = 740634
Minimum fragmentation = 0
Average fragmentation = 0
Maximum fragmentation = 0
Minimum injected packet rate = 0.134 (at node 7550)
Average injected packet rate = 0.199756
Maximum injected packet rate = 0.268 (at node 238)
Minimum accepted packet rate = 0.124 (at node 5389)
Average accepted packet rate = 0.18985
Maximum accepted packet rate = 0.262 (at node 6175)
Minimum injected flit rate = 0.134 (at node 7550)
Average injected flit rate = 0.199756
Maximum injected flit rate = 0.268 (at node 238)
Minimum accepted flit rate = 0.124 (at node 5389)
Average accepted flit rate = 0.18985
Maximum accepted flit rate = 0.262 (at node 6175)
Average injected packet length = 1
Average accepted packet length = 1
Total in-flight flits = 40573 (0 measured)
latency change    = 1
throughput change = 1
0
Class 0:
Minimum packet latency = 5
Average packet latency = 24.696
Maximum packet latency = 47
Minimum network latency = 5
Average network latency = 24.696
Maximum network latency = 47
Slowest packet = 740634
Minimum flit latency = 5
Average flit latency = 24.696
Maximum flit latency = 47
Slowest flit = 740634
Minimum fragmentation = 0
Average fragmentation = 0
Maximum fragmentation = 0
Minimum injected packet rate = 0.155 (at node 6443)
Average injected packet rate = 0.199976
Maximum injected packet rate = 0.251 (at node 1954)
Minimum accepted packet rate = 0.148 (at node 5263)
Average accepted packet rate = 0.195049
Maximum accepted packet rate = 0.249 (at node 3493)
Minimum injected flit rate = 0.155 (at node 6443)
Average injected flit rate = 0.199976
Maximum injected flit rate = 0.251 (at node 1954)
Minimum accepted flit rate = 0.148 (at node 5263)
Average accepted flit rate = 0.195049
Maximum accepted flit rate = 0.249 (at node 3493)
Average injected packet length = 1
Average accepted packet length = 1
Total in-flight flits = 40363 (0 measured)
latency change    = 0.00127743
throughput change = 0.026651
0
Class 0:
Minimum packet latency = 5
Average packet latency = 24.7286
Maximum packet latency = 46
Minimum network latency = 5
Average network latency = 24.7286
Maximum network latency = 46
Slowest packet = 1728789
Minimum flit latency = 5
Average flit latency = 24.7286
Maximum flit latency = 46
Slowest flit = 1728789
Minimum fragmentation = 0
Average fragmentation = 0
Maximum fragmentation = 0
Minimum injected packet rate = 0.138 (at node 3962)
Average injected packet rate = 0.200138
Maximum injected packet rate = 0.27 (at node 3500)
Minimum accepted packet rate = 0.122 (at node 269)
Average accepted packet rate = 0.200104
Maximum accepted packet rate = 0.28 (at node 7168)
Minimum injected flit rate = 0.138 (at node 3962)
Average injected flit rate = 0.200138
Maximum injected flit rate = 0.27 (at node 3500)
Minimum accepted flit rate = 0.122 (at node 269)
Average accepted flit rate = 0.200104
Maximum accepted flit rate = 0.28 (at node 7168)
Average injected packet length = 1
Average accepted packet length = 1
Total in-flight flits = 40502 (0 measured)
latency change    = 0.00131791
throughput change = 0.0252652
Warmed up ...Time used is 1500 cycles
1
Class 0:
Minimum packet latency = 5
Average packet latency = 24.6632
Maximum packet latency = 46
Minimum network latency = 5
Average network latency = 24.6632
Maximum network latency = 46
Slowest packet = 2523039
Minimum flit latency = 5
Average flit latency = 24.7271
Maximum flit latency = 46
Slowest flit = 2523039
Minimum fragmentation = 0
Average fragmentation = 0
Maximum fragmentation = 0
Minimum injected packet rate = 0.13 (at node 4736)
Average injected packet rate = 0.199811
Maximum injected packet rate = 0.28 (at node 2650)
Minimum accepted packet rate = 0.13 (at node 8167)
Average accepted packet rate = 0.199849
Maximum accepted packet rate = 0.282 (at node 107)
Minimum injected flit rate = 0.13 (at node 4736)
Average injected flit rate = 0.199811
Maximum injected flit rate = 0.28 (at node 2650)
Minimum accepted flit rate = 0.13 (at node 8167)
Average accepted flit rate = 0.199849
Maximum accepted flit rate = 0.282 (at node 107)
Average injected packet length = 1
Average accepted packet length = 1
Total in-flight flits = 40345 (40345 measured)
latency change    = 0.0026523
throughput change = 0.00127782
1
Class 0:
Minimum packet latency = 5
Average packet latency = 24.7005
Maximum packet latency = 48
Minimum network latency = 5
Average network latency = 24.7005
Maximum network latency = 48
Slowest packet = 3316802
Minimum flit latency = 5
Average flit latency = 24.7315
Maximum flit latency = 48
Slowest flit = 3316802
Minimum fragmentation = 0
Average fragmentation = 0
Maximum fragmentation = 0
Minimum injected packet rate = 0.15 (at node 3448)
Average injected packet rate = 0.20005
Maximum injected packet rate = 0.251 (at node 6329)
Minimum accepted packet rate = 0.147 (at node 3217)
Average accepted packet rate = 0.200062
Maximum accepted packet rate = 0.257 (at node 5516)
Minimum injected flit rate = 0.15 (at node 3448)
Average injected flit rate = 0.20005
Maximum injected flit rate = 0.251 (at node 6329)
Minimum accepted flit rate = 0.147 (at node 3217)
Average accepted flit rate = 0.200062
Maximum accepted flit rate = 0.257 (at node 5516)
Average injected packet length = 1
Average accepted packet length = 1
Total in-flight flits = 40401 (40401 measured)
latency change    = 0.00151218
throughput change = 0.00106595
1
Class 0:
Minimum packet latency = 5
Average packet latency = 24.7129
Maximum packet latency = 48
Minimum network latency = 5
Average network latency = 24.7129
Maximum network latency = 48
Slowest packet = 3316802
Minimum flit latency = 5
Average flit latency = 24.7334
Maximum flit latency = 48
Slowest flit = 3316802
Minimum fragmentation = 0
Average fragmentation = 0
Maximum fragmentation = 0
Minimum injected packet rate = 0.158 (at node 5314)
Average injected packet rate = 0.200121
Maximum injected packet rate = 0.241333 (at node 5611)
Minimum accepted packet rate = 0.158667 (at node 5764)
Average accepted packet rate = 0.200111
Maximum accepted packet rate = 0.244 (at node 5516)
Minimum injected flit rate = 0.158 (at node 5314)
Average injected flit rate = 0.200121
Maximum injected flit rate = 0.241333 (at node 5611)
Minimum accepted flit rate = 0.158667 (at node 5764)
Average accepted flit rate = 0.200111
Maximum accepted flit rate = 0.244 (at node 5516)
Average injected packet length = 1
Average accepted packet length = 1
Total in-flight flits = 40632 (40632 measured)
latency change    = 0.000501636
throughput change = 0.000242176
Draining all recorded packets ...
Draining remaining packets ...
Time taken is 3087 cycles
====== Traffic class 0 ======
Overall minimum packet latency = 5 (1 samples)
Overall average packet latency = 24.7329 (1 samples)
Overall maximum packet latency = 48 (1 samples)
Overall minimum network latency = 5 (1 samples)
Overall average network latency = 24.7329 (1 samples)
Overall maximum network latency = 48 (1 samples)
Overall minimum flit latency = 5 (1 samples)
Overall average flit latency = 24.7517 (1 samples)
Overall maximum flit latency = 48 (1 samples)
Overall minimum fragmentation = 0 (1 samples)
Overall average fragmentation = 0 (1 samples)
Overall maximum fragmentation = 0 (1 samples)
Overall minimum injected packet rate = 0.158 (1 samples)
Overall average injected packet rate = 0.200121 (1 samples)
Overall maximum injected packet rate = 0.241333 (1 samples)
Overall minimum accepted packet rate = 0.158667 (1 samples)
Overall average accepted packet rate = 0.200111 (1 samples)
Overall maximum accepted packet rate = 0.244 (1 samples)
Overall minimum injected flit rate = 0.158 (1 samples)
Overall average injected flit rate = 0.200121 (1 samples)
Overall maximum injected flit rate = 0.241333 (1 samples)
Overall minimum accepted flit rate = 0.158667 (1 samples)
Overall average accepted flit rate = 0.200111 (1 samples)
Overall maximum accepted flit rate = 0.244 (1 samples)
Overall average injected packet size = 1 (1 samples)
Overall average accepted packet size = 1 (1 samples)
Overall average hops = 7.49999 (1 samples)
Total run time 1177.96
