BEGIN Configuration File: ./HC
injection_rate = 0.3;
traffic = uniform;
routing_function = dim_order;
vc_buf_size = 16;
topology = torus;
use_noc_latency = 0;
hold_switch_for_packet=0;

k = 2;
n = 13;

packet_size  = 1;
num_vcs      = 2;
vc_allocator = separable_input_first; 
sw_allocator = separable_input_first;

alloc_iters   = 1;
sample_period = 500;

wait_for_tail_credit = 0;
use_read_write       = 0;

credit_delay   = 2;
routing_delay  = 0;
vc_alloc_delay = 1;
sw_alloc_delay = 1;
st_final_delay = 1;

input_speedup     = 1;
output_speedup    = 1;
internal_speedup  = 2.0;

warmup_periods = 3;
sim_count      = 1;

priority = none;
injection_rate_uses_flits=1;

END Configuration File: ./HC
Number of nodes: 8192
Number of routers: 8192
0
Class 0:
Minimum packet latency = 5
Average packet latency = 24.8259
Maximum packet latency = 49
Minimum network latency = 5
Average network latency = 24.8259
Maximum network latency = 49
Slowest packet = 1045736
Minimum flit latency = 5
Average flit latency = 24.8259
Maximum flit latency = 49
Slowest flit = 1045736
Minimum fragmentation = 0
Average fragmentation = 0
Maximum fragmentation = 0
Minimum injected packet rate = 0.228 (at node 7550)
Average injected packet rate = 0.299721
Maximum injected packet rate = 0.376 (at node 4197)
Minimum accepted packet rate = 0.2 (at node 531)
Average accepted packet rate = 0.284705
Maximum accepted packet rate = 0.378 (at node 5113)
Minimum injected flit rate = 0.228 (at node 7550)
Average injected flit rate = 0.299721
Maximum injected flit rate = 0.376 (at node 4197)
Minimum accepted flit rate = 0.2 (at node 531)
Average accepted flit rate = 0.284705
Maximum accepted flit rate = 0.378 (at node 5113)
Average injected packet length = 1
Average accepted packet length = 1
Total in-flight flits = 61505 (0 measured)
latency change    = 1
throughput change = 1
0
Class 0:
Minimum packet latency = 5
Average packet latency = 24.8609
Maximum packet latency = 49
Minimum network latency = 5
Average network latency = 24.8609
Maximum network latency = 49
Slowest packet = 1045736
Minimum flit latency = 5
Average flit latency = 24.8609
Maximum flit latency = 49
Slowest flit = 1045736
Minimum fragmentation = 0
Average fragmentation = 0
Maximum fragmentation = 0
Minimum injected packet rate = 0.252 (at node 2677)
Average injected packet rate = 0.299846
Maximum injected packet rate = 0.359 (at node 3923)
Minimum accepted packet rate = 0.234 (at node 5491)
Average accepted packet rate = 0.292431
Maximum accepted packet rate = 0.36 (at node 7892)
Minimum injected flit rate = 0.252 (at node 2677)
Average injected flit rate = 0.299846
Maximum injected flit rate = 0.359 (at node 3923)
Minimum accepted flit rate = 0.234 (at node 5491)
Average accepted flit rate = 0.292431
Maximum accepted flit rate = 0.36 (at node 7892)
Average injected packet length = 1
Average accepted packet length = 1
Total in-flight flits = 60742 (0 measured)
latency change    = 0.00141004
throughput change = 0.0264201
0
Class 0:
Minimum packet latency = 5
Average packet latency = 24.8832
Maximum packet latency = 48
Minimum network latency = 5
Average network latency = 24.8832
Maximum network latency = 48
Slowest packet = 2655398
Minimum flit latency = 5
Average flit latency = 24.8832
Maximum flit latency = 48
Slowest flit = 2655398
Minimum fragmentation = 0
Average fragmentation = 0
Maximum fragmentation = 0
Minimum injected packet rate = 0.216 (at node 3962)
Average injected packet rate = 0.300108
Maximum injected packet rate = 0.372 (at node 2154)
Minimum accepted packet rate = 0.216 (at node 7692)
Average accepted packet rate = 0.300005
Maximum accepted packet rate = 0.404 (at node 5084)
Minimum injected flit rate = 0.216 (at node 3962)
Average injected flit rate = 0.300108
Maximum injected flit rate = 0.372 (at node 2154)
Minimum accepted flit rate = 0.216 (at node 7692)
Average accepted flit rate = 0.300005
Maximum accepted flit rate = 0.404 (at node 5084)
Average injected packet length = 1
Average accepted packet length = 1
Total in-flight flits = 61167 (0 measured)
latency change    = 0.000897477
throughput change = 0.0252438
Warmed up ...Time used is 1500 cycles
1
Class 0:
Minimum packet latency = 5
Average packet latency = 24.8301
Maximum packet latency = 47
Minimum network latency = 5
Average network latency = 24.8301
Maximum network latency = 47
Slowest packet = 3772090
Minimum flit latency = 5
Average flit latency = 24.8941
Maximum flit latency = 47
Slowest flit = 3599972
Minimum fragmentation = 0
Average fragmentation = 0
Maximum fragmentation = 0
Minimum injected packet rate = 0.226 (at node 6621)
Average injected packet rate = 0.299799
Maximum injected packet rate = 0.378 (at node 3013)
Minimum accepted packet rate = 0.214 (at node 3980)
Average accepted packet rate = 0.299803
Maximum accepted packet rate = 0.396 (at node 6121)
Minimum injected flit rate = 0.226 (at node 6621)
Average injected flit rate = 0.299799
Maximum injected flit rate = 0.378 (at node 3013)
Minimum accepted flit rate = 0.214 (at node 3980)
Average accepted flit rate = 0.299803
Maximum accepted flit rate = 0.396 (at node 6121)
Average injected packet length = 1
Average accepted packet length = 1
Total in-flight flits = 61148 (61148 measured)
latency change    = 0.00214198
throughput change = 0.000671827
1
Class 0:
Minimum packet latency = 5
Average packet latency = 24.8545
Maximum packet latency = 49
Minimum network latency = 5
Average network latency = 24.8545
Maximum network latency = 49
Slowest packet = 5511062
Minimum flit latency = 5
Average flit latency = 24.8859
Maximum flit latency = 49
Slowest flit = 5511062
Minimum fragmentation = 0
Average fragmentation = 0
Maximum fragmentation = 0
Minimum injected packet rate = 0.25 (at node 3096)
Average injected packet rate = 0.299984
Maximum injected packet rate = 0.356 (at node 2470)
Minimum accepted packet rate = 0.242 (at node 2388)
Average accepted packet rate = 0.300004
Maximum accepted packet rate = 0.36 (at node 2348)
Minimum injected flit rate = 0.25 (at node 3096)
Average injected flit rate = 0.299984
Maximum injected flit rate = 0.356 (at node 2470)
Minimum accepted flit rate = 0.242 (at node 2388)
Average accepted flit rate = 0.300004
Maximum accepted flit rate = 0.36 (at node 2348)
Average injected packet length = 1
Average accepted packet length = 1
Total in-flight flits = 61003 (61003 measured)
latency change    = 0.000982587
throughput change = 0.00066975
1
Class 0:
Minimum packet latency = 5
Average packet latency = 24.8674
Maximum packet latency = 50
Minimum network latency = 5
Average network latency = 24.8674
Maximum network latency = 50
Slowest packet = 6154395
Minimum flit latency = 5
Average flit latency = 24.8881
Maximum flit latency = 50
Slowest flit = 6154395
Minimum fragmentation = 0
Average fragmentation = 0
Maximum fragmentation = 0
Minimum injected packet rate = 0.255333 (at node 3096)
Average injected packet rate = 0.300054
Maximum injected packet rate = 0.342667 (at node 5611)
Minimum accepted packet rate = 0.248667 (at node 2388)
Average accepted packet rate = 0.300054
Maximum accepted packet rate = 0.355333 (at node 4327)
Minimum injected flit rate = 0.255333 (at node 3096)
Average injected flit rate = 0.300054
Maximum injected flit rate = 0.342667 (at node 5611)
Minimum accepted flit rate = 0.248667 (at node 2388)
Average accepted flit rate = 0.300054
Maximum accepted flit rate = 0.355333 (at node 4327)
Average injected packet length = 1
Average accepted packet length = 1
Total in-flight flits = 61166 (61166 measured)
latency change    = 0.000517776
throughput change = 0.000165715
Draining all recorded packets ...
Draining remaining packets ...
Time taken is 3089 cycles
====== Traffic class 0 ======
Overall minimum packet latency = 5 (1 samples)
Overall average packet latency = 24.8877 (1 samples)
Overall maximum packet latency = 50 (1 samples)
Overall minimum network latency = 5 (1 samples)
Overall average network latency = 24.8877 (1 samples)
Overall maximum network latency = 50 (1 samples)
Overall minimum flit latency = 5 (1 samples)
Overall average flit latency = 24.9059 (1 samples)
Overall maximum flit latency = 50 (1 samples)
Overall minimum fragmentation = 0 (1 samples)
Overall average fragmentation = 0 (1 samples)
Overall maximum fragmentation = 0 (1 samples)
Overall minimum injected packet rate = 0.255333 (1 samples)
Overall average injected packet rate = 0.300054 (1 samples)
Overall maximum injected packet rate = 0.342667 (1 samples)
Overall minimum accepted packet rate = 0.248667 (1 samples)
Overall average accepted packet rate = 0.300054 (1 samples)
Overall maximum accepted packet rate = 0.355333 (1 samples)
Overall minimum injected flit rate = 0.255333 (1 samples)
Overall average injected flit rate = 0.300054 (1 samples)
Overall maximum injected flit rate = 0.342667 (1 samples)
Overall minimum accepted flit rate = 0.248667 (1 samples)
Overall average accepted flit rate = 0.300054 (1 samples)
Overall maximum accepted flit rate = 0.355333 (1 samples)
Overall average injected packet size = 1 (1 samples)
Overall average accepted packet size = 1 (1 samples)
Overall average hops = 7.50015 (1 samples)
Total run time 1427.52
