BEGIN Configuration File: ./HC
injection_rate = 0.8;
traffic = uniform;
routing_function = dim_order;
vc_buf_size = 16;
topology = torus;
use_noc_latency = 0;
hold_switch_for_packet=0;

k = 2;
n = 13;

packet_size  = 1;
num_vcs      = 2;
vc_allocator = separable_input_first; 
sw_allocator = separable_input_first;

alloc_iters   = 1;
sample_period = 500;

wait_for_tail_credit = 0;
use_read_write       = 0;

credit_delay   = 2;
routing_delay  = 0;
vc_alloc_delay = 1;
sw_alloc_delay = 1;
st_final_delay = 1;

input_speedup     = 1;
output_speedup    = 1;
internal_speedup  = 2.0;

warmup_periods = 3;
sim_count      = 1;

priority = none;
injection_rate_uses_flits=1;

END Configuration File: ./HC
Number of nodes: 8192
Number of routers: 8192
0
Class 0:
Minimum packet latency = 5
Average packet latency = 27.0284
Maximum packet latency = 67
Minimum network latency = 5
Average network latency = 27.0284
Maximum network latency = 67
Slowest packet = 1403012
Minimum flit latency = 5
Average flit latency = 27.0284
Maximum flit latency = 67
Slowest flit = 1403012
Minimum fragmentation = 0
Average fragmentation = 0
Maximum fragmentation = 0
Minimum injected packet rate = 0.728 (at node 5117)
Average injected packet rate = 0.799753
Maximum injected packet rate = 0.868 (at node 7128)
Minimum accepted packet rate = 0.618 (at node 215)
Average accepted packet rate = 0.756282
Maximum accepted packet rate = 0.896 (at node 5350)
Minimum injected flit rate = 0.728 (at node 5117)
Average injected flit rate = 0.799753
Maximum injected flit rate = 0.868 (at node 7128)
Minimum accepted flit rate = 0.618 (at node 215)
Average accepted flit rate = 0.756282
Maximum accepted flit rate = 0.896 (at node 5350)
Average injected packet length = 1
Average accepted packet length = 1
Total in-flight flits = 178056 (0 measured)
latency change    = 1
throughput change = 1
0
Class 0:
Minimum packet latency = 5
Average packet latency = 27.1109
Maximum packet latency = 67
Minimum network latency = 5
Average network latency = 27.1109
Maximum network latency = 67
Slowest packet = 1403012
Minimum flit latency = 5
Average flit latency = 27.1109
Maximum flit latency = 67
Slowest flit = 1403012
Minimum fragmentation = 0
Average fragmentation = 0
Maximum fragmentation = 0
Minimum injected packet rate = 0.747 (at node 2823)
Average injected packet rate = 0.799856
Maximum injected packet rate = 0.849 (at node 1229)
Minimum accepted packet rate = 0.68 (at node 142)
Average accepted packet rate = 0.778188
Maximum accepted packet rate = 0.879 (at node 7590)
Minimum injected flit rate = 0.747 (at node 2823)
Average injected flit rate = 0.799856
Maximum injected flit rate = 0.849 (at node 1229)
Minimum accepted flit rate = 0.68 (at node 142)
Average accepted flit rate = 0.778188
Maximum accepted flit rate = 0.879 (at node 7590)
Average injected packet length = 1
Average accepted packet length = 1
Total in-flight flits = 177504 (0 measured)
latency change    = 0.00304121
throughput change = 0.0281497
0
Class 0:
Minimum packet latency = 5
Average packet latency = 27.1841
Maximum packet latency = 69
Minimum network latency = 5
Average network latency = 27.1841
Maximum network latency = 69
Slowest packet = 7074640
Minimum flit latency = 5
Average flit latency = 27.1841
Maximum flit latency = 69
Slowest flit = 7074640
Minimum fragmentation = 0
Average fragmentation = 0
Maximum fragmentation = 0
Minimum injected packet rate = 0.73 (at node 7502)
Average injected packet rate = 0.80008
Maximum injected packet rate = 0.862 (at node 1309)
Minimum accepted packet rate = 0.656 (at node 7508)
Average accepted packet rate = 0.799854
Maximum accepted packet rate = 0.954 (at node 2382)
Minimum injected flit rate = 0.73 (at node 7502)
Average injected flit rate = 0.80008
Maximum injected flit rate = 0.862 (at node 1309)
Minimum accepted flit rate = 0.656 (at node 7508)
Average accepted flit rate = 0.799854
Maximum accepted flit rate = 0.954 (at node 2382)
Average injected packet length = 1
Average accepted packet length = 1
Total in-flight flits = 178428 (0 measured)
latency change    = 0.00269524
throughput change = 0.0270884
Warmed up ...Time used is 1500 cycles
1
Class 0:
Minimum packet latency = 5
Average packet latency = 27.0983
Maximum packet latency = 64
Minimum network latency = 5
Average network latency = 27.0983
Maximum network latency = 64
Slowest packet = 11617980
Minimum flit latency = 5
Average flit latency = 27.1798
Maximum flit latency = 64
Slowest flit = 9589418
Minimum fragmentation = 0
Average fragmentation = 0
Maximum fragmentation = 0
Minimum injected packet rate = 0.73 (at node 4180)
Average injected packet rate = 0.799792
Maximum injected packet rate = 0.864 (at node 7779)
Minimum accepted packet rate = 0.654 (at node 6143)
Average accepted packet rate = 0.799807
Maximum accepted packet rate = 0.96 (at node 2943)
Minimum injected flit rate = 0.73 (at node 4180)
Average injected flit rate = 0.799792
Maximum injected flit rate = 0.864 (at node 7779)
Minimum accepted flit rate = 0.654 (at node 6143)
Average accepted flit rate = 0.799807
Maximum accepted flit rate = 0.96 (at node 2943)
Average injected packet length = 1
Average accepted packet length = 1
Total in-flight flits = 178365 (178365 measured)
latency change    = 0.00316653
throughput change = 5.89131e-05
1
Class 0:
Minimum packet latency = 5
Average packet latency = 27.1498
Maximum packet latency = 65
Minimum network latency = 5
Average network latency = 27.1498
Maximum network latency = 65
Slowest packet = 14484220
Minimum flit latency = 5
Average flit latency = 27.1891
Maximum flit latency = 65
Slowest flit = 14484220
Minimum fragmentation = 0
Average fragmentation = 0
Maximum fragmentation = 0
Minimum injected packet rate = 0.752 (at node 6705)
Average injected packet rate = 0.799962
Maximum injected packet rate = 0.851 (at node 136)
Minimum accepted packet rate = 0.703 (at node 2801)
Average accepted packet rate = 0.80002
Maximum accepted packet rate = 0.893 (at node 1127)
Minimum injected flit rate = 0.752 (at node 6705)
Average injected flit rate = 0.799962
Maximum injected flit rate = 0.851 (at node 136)
Minimum accepted flit rate = 0.703 (at node 2801)
Average accepted flit rate = 0.80002
Maximum accepted flit rate = 0.893 (at node 1127)
Average injected packet length = 1
Average accepted packet length = 1
Total in-flight flits = 177954 (177954 measured)
latency change    = 0.00189447
throughput change = 0.000265649
1
Class 0:
Minimum packet latency = 5
Average packet latency = 27.1647
Maximum packet latency = 65
Minimum network latency = 5
Average network latency = 27.1647
Maximum network latency = 65
Slowest packet = 14484220
Minimum flit latency = 5
Average flit latency = 27.1907
Maximum flit latency = 65
Slowest flit = 14484220
Minimum fragmentation = 0
Average fragmentation = 0
Maximum fragmentation = 0
Minimum injected packet rate = 0.757333 (at node 7281)
Average injected packet rate = 0.800022
Maximum injected packet rate = 0.838 (at node 3179)
Minimum accepted packet rate = 0.725333 (at node 3510)
Average accepted packet rate = 0.800038
Maximum accepted packet rate = 0.878 (at node 8113)
Minimum injected flit rate = 0.757333 (at node 7281)
Average injected flit rate = 0.800022
Maximum injected flit rate = 0.838 (at node 3179)
Minimum accepted flit rate = 0.725333 (at node 3510)
Average accepted flit rate = 0.800038
Maximum accepted flit rate = 0.878 (at node 8113)
Average injected packet length = 1
Average accepted packet length = 1
Total in-flight flits = 178231 (178231 measured)
latency change    = 0.000551187
throughput change = 2.24294e-05
Draining all recorded packets ...
Draining remaining packets ...
Time taken is 3105 cycles
====== Traffic class 0 ======
Overall minimum packet latency = 5 (1 samples)
Overall average packet latency = 27.1912 (1 samples)
Overall maximum packet latency = 65 (1 samples)
Overall minimum network latency = 5 (1 samples)
Overall average network latency = 27.1912 (1 samples)
Overall maximum network latency = 65 (1 samples)
Overall minimum flit latency = 5 (1 samples)
Overall average flit latency = 27.2101 (1 samples)
Overall maximum flit latency = 66 (1 samples)
Overall minimum fragmentation = 0 (1 samples)
Overall average fragmentation = 0 (1 samples)
Overall maximum fragmentation = 0 (1 samples)
Overall minimum injected packet rate = 0.757333 (1 samples)
Overall average injected packet rate = 0.800022 (1 samples)
Overall maximum injected packet rate = 0.838 (1 samples)
Overall minimum accepted packet rate = 0.725333 (1 samples)
Overall average accepted packet rate = 0.800038 (1 samples)
Overall maximum accepted packet rate = 0.878 (1 samples)
Overall minimum injected flit rate = 0.757333 (1 samples)
Overall average injected flit rate = 0.800022 (1 samples)
Overall maximum injected flit rate = 0.838 (1 samples)
Overall minimum accepted flit rate = 0.725333 (1 samples)
Overall average accepted flit rate = 0.800038 (1 samples)
Overall maximum accepted flit rate = 0.878 (1 samples)
Overall average injected packet size = 1 (1 samples)
Overall average accepted packet size = 1 (1 samples)
Overall average hops = 7.50003 (1 samples)
Total run time 2619.21
