BEGIN Configuration File: ./HC.conf
injection_rate = 0.6;
traffic = uniform;
use_size_power_of_two = no;
routing_function = min;
vc_buf_size = 16;
network_file = HC.10.bsconf;
load_routing_file = no;
routing_table_file = HC.10.bsconf;
topology = anynet;
use_noc_latency = 0;
hold_switch_for_packet=0;

k = 1;

packet_size  = 1;
num_vcs      = 4;
vc_allocator = separable_input_first; 
sw_allocator = separable_input_first;

alloc_iters   = 1;
sample_period = 500;

wait_for_tail_credit = 0;
use_read_write       = 0;

credit_delay   = 2;
routing_delay  = 0;
vc_alloc_delay = 1;
sw_alloc_delay = 1;
st_final_delay = 1;

input_speedup     = 1;
output_speedup    = 1;
internal_speedup  = 2.0;

warmup_periods = 3;
sim_count      = 1;

priority = none;
injection_rate_uses_flits=1;
injection_rate = 0.01;
traffic = uniform;
use_size_power_of_two = no;
routing_function = min;
vc_buf_size = 16;
network_file = HC.10.bsconf;
load_routing_file = no;
routing_table_file = HC.10.bsconf;
topology = anynet;
use_noc_latency = 0;
hold_switch_for_packet=0;

k = 1;

packet_size  = 1;
num_vcs      = 4;
vc_allocator = separable_input_first; 
sw_allocator = separable_input_first;

alloc_iters   = 1;
sample_period = 500;

wait_for_tail_credit = 0;
use_read_write       = 0;

credit_delay   = 2;
routing_delay  = 0;
vc_alloc_delay = 1;
sw_alloc_delay = 1;
st_final_delay = 1;

input_speedup     = 1;
output_speedup    = 1;
internal_speedup  = 2.0;

warmup_periods = 3;
sim_count      = 1;

priority = none;
injection_rate_uses_flits=1;
injection_rate = 0.1;
traffic = uniform;
use_size_power_of_two = no;
routing_function = min;
vc_buf_size = 16;
network_file = HC.10.bsconf;
load_routing_file = no;
routing_table_file = HC.10.bsconf;
topology = anynet;
use_noc_latency = 0;
hold_switch_for_packet=0;

k = 1;

packet_size  = 1;
num_vcs      = 4;
vc_allocator = separable_input_first; 
sw_allocator = separable_input_first;

alloc_iters   = 1;
sample_period = 500;

wait_for_tail_credit = 0;
use_read_write       = 0;

credit_delay   = 2;
routing_delay  = 0;
vc_alloc_delay = 1;
sw_alloc_delay = 1;
st_final_delay = 1;

input_speedup     = 1;
output_speedup    = 1;
internal_speedup  = 2.0;

warmup_periods = 3;
sim_count      = 1;

priority = none;
injection_rate_uses_flits=1;
injection_rate = 0.2;
traffic = uniform;
use_size_power_of_two = no;
routing_function = min;
vc_buf_size = 16;
network_file = HC.10.bsconf;
load_routing_file = no;
routing_table_file = HC.10.bsconf;
topology = anynet;
use_noc_latency = 0;
hold_switch_for_packet=0;

k = 1;

packet_size  = 1;
num_vcs      = 4;
vc_allocator = separable_input_first; 
sw_allocator = separable_input_first;

alloc_iters   = 1;
sample_period = 500;

wait_for_tail_credit = 0;
use_read_write       = 0;

credit_delay   = 2;
routing_delay  = 0;
vc_alloc_delay = 1;
sw_alloc_delay = 1;
st_final_delay = 1;

input_speedup     = 1;
output_speedup    = 1;
internal_speedup  = 2.0;

warmup_periods = 3;
sim_count      = 1;

priority = none;
injection_rate_uses_flits=1;
injection_rate = 0.3;
traffic = uniform;
use_size_power_of_two = no;
routing_function = min;
vc_buf_size = 16;
network_file = HC.10.bsconf;
load_routing_file = no;
routing_table_file = HC.10.bsconf;
topology = anynet;
use_noc_latency = 0;
hold_switch_for_packet=0;

k = 1;

packet_size  = 1;
num_vcs      = 4;
vc_allocator = separable_input_first; 
sw_allocator = separable_input_first;

alloc_iters   = 1;
sample_period = 500;

wait_for_tail_credit = 0;
use_read_write       = 0;

credit_delay   = 2;
routing_delay  = 0;
vc_alloc_delay = 1;
sw_alloc_delay = 1;
st_final_delay = 1;

input_speedup     = 1;
output_speedup    = 1;
internal_speedup  = 2.0;

warmup_periods = 3;
sim_count      = 1;

priority = none;
injection_rate_uses_flits=1;
injection_rate = 0.4;
traffic = uniform;
use_size_power_of_two = no;
routing_function = min;
vc_buf_size = 16;
network_file = HC.10.bsconf;
load_routing_file = no;
routing_table_file = HC.10.bsconf;
topology = anynet;
use_noc_latency = 0;
hold_switch_for_packet=0;

k = 1;

packet_size  = 1;
num_vcs      = 4;
vc_allocator = separable_input_first; 
sw_allocator = separable_input_first;

alloc_iters   = 1;
sample_period = 500;

wait_for_tail_credit = 0;
use_read_write       = 0;

credit_delay   = 2;
routing_delay  = 0;
vc_alloc_delay = 1;
sw_alloc_delay = 1;
st_final_delay = 1;

input_speedup     = 1;
output_speedup    = 1;
internal_speedup  = 2.0;

warmup_periods = 3;
sim_count      = 1;

priority = none;
injection_rate_uses_flits=1;
injection_rate = 0.5;
traffic = uniform;
use_size_power_of_two = no;
routing_function = min;
vc_buf_size = 16;
network_file = HC.10.bsconf;
load_routing_file = no;
routing_table_file = HC.10.bsconf;
topology = anynet;
use_noc_latency = 0;
hold_switch_for_packet=0;

k = 1;

packet_size  = 1;
num_vcs      = 4;
vc_allocator = separable_input_first; 
sw_allocator = separable_input_first;

alloc_iters   = 1;
sample_period = 500;

wait_for_tail_credit = 0;
use_read_write       = 0;

credit_delay   = 2;
routing_delay  = 0;
vc_alloc_delay = 1;
sw_alloc_delay = 1;
st_final_delay = 1;

input_speedup     = 1;
output_speedup    = 1;
internal_speedup  = 2.0;

warmup_periods = 3;
sim_count      = 1;

priority = none;
injection_rate_uses_flits=1;
injection_rate = 0.6;
traffic = uniform;
use_size_power_of_two = no;
routing_function = min;
vc_buf_size = 16;
network_file = HC.10.bsconf;
load_routing_file = no;
routing_table_file = HC.10.bsconf;
topology = anynet;
use_noc_latency = 0;
hold_switch_for_packet=0;

k = 1;

packet_size  = 1;
num_vcs      = 4;
vc_allocator = separable_input_first; 
sw_allocator = separable_input_first;

alloc_iters   = 1;
sample_period = 500;

wait_for_tail_credit = 0;
use_read_write       = 0;

credit_delay   = 2;
routing_delay  = 0;
vc_alloc_delay = 1;
sw_alloc_delay = 1;
st_final_delay = 1;

input_speedup     = 1;
output_speedup    = 1;
internal_speedup  = 2.0;

warmup_periods = 3;
sim_count      = 1;

priority = none;
injection_rate_uses_flits=1;
injection_rate = 0.7;
traffic = uniform;
use_size_power_of_two = no;
routing_function = min;
vc_buf_size = 16;
network_file = HC.10.bsconf;
load_routing_file = no;
routing_table_file = HC.10.bsconf;
topology = anynet;
use_noc_latency = 0;
hold_switch_for_packet=0;

k = 1;

packet_size  = 1;
num_vcs      = 4;
vc_allocator = separable_input_first; 
sw_allocator = separable_input_first;

alloc_iters   = 1;
sample_period = 500;

wait_for_tail_credit = 0;
use_read_write       = 0;

credit_delay   = 2;
routing_delay  = 0;
vc_alloc_delay = 1;
sw_alloc_delay = 1;
st_final_delay = 1;

input_speedup     = 1;
output_speedup    = 1;
internal_speedup  = 2.0;

warmup_periods = 3;
sim_count      = 1;

priority = none;
injection_rate_uses_flits=1;
injection_rate = 0.8;
traffic = uniform;
use_size_power_of_two = no;
routing_function = min;
vc_buf_size = 16;
network_file = HC.10.bsconf;
load_routing_file = no;
routing_table_file = HC.10.bsconf;
topology = anynet;
use_noc_latency = 0;
hold_switch_for_packet=0;

k = 1;

packet_size  = 1;
num_vcs      = 4;
vc_allocator = separable_input_first; 
sw_allocator = separable_input_first;

alloc_iters   = 1;
sample_period = 500;

wait_for_tail_credit = 0;
use_read_write       = 0;

credit_delay   = 2;
routing_delay  = 0;
vc_alloc_delay = 1;
sw_alloc_delay = 1;
st_final_delay = 1;

input_speedup     = 1;
output_speedup    = 1;
internal_speedup  = 2.0;

warmup_periods = 3;
sim_count      = 1;

priority = none;
injection_rate_uses_flits=1;
injection_rate = 0.01;
traffic = uniform;
use_size_power_of_two = no;
routing_function = min;
vc_buf_size = 16;
network_file = HC.10.bsconf;
load_routing_file = no;
routing_table_file = HC.10.bsconf;
topology = anynet;
use_noc_latency = 0;
hold_switch_for_packet=0;

k = 1;

packet_size  = 1;
num_vcs      = 4;
vc_allocator = separable_input_first; 
sw_allocator = separable_input_first;

alloc_iters   = 1;
sample_period = 500;

wait_for_tail_credit = 0;
use_read_write       = 0;

credit_delay   = 2;
routing_delay  = 0;
vc_alloc_delay = 1;
sw_alloc_delay = 1;
st_final_delay = 1;

input_speedup     = 1;
output_speedup    = 1;
internal_speedup  = 2.0;

warmup_periods = 3;
sim_count      = 1;

priority = none;
injection_rate_uses_flits=1;
injection_rate = 0.01;
traffic = uniform;
use_size_power_of_two = no;
routing_function = min;
vc_buf_size = 16;
network_file = HC.7.bsconf;
load_routing_file = no;
routing_table_file = HC.7.bsconf;
topology = anynet;
use_noc_latency = 0;
hold_switch_for_packet=0;

k = 1;

packet_size  = 1;
num_vcs      = 4;
vc_allocator = separable_input_first; 
sw_allocator = separable_input_first;

alloc_iters   = 1;
sample_period = 500;

wait_for_tail_credit = 0;
use_read_write       = 0;

credit_delay   = 2;
routing_delay  = 0;
vc_alloc_delay = 1;
sw_alloc_delay = 1;
st_final_delay = 1;

input_speedup     = 1;
output_speedup    = 1;
internal_speedup  = 2.0;

warmup_periods = 3;
sim_count      = 1;

priority = none;
injection_rate_uses_flits=1;
injection_rate = 0.1;
traffic = uniform;
use_size_power_of_two = no;
routing_function = min;
vc_buf_size = 16;
network_file = HC.7.bsconf;
load_routing_file = no;
routing_table_file = HC.7.bsconf;
topology = anynet;
use_noc_latency = 0;
hold_switch_for_packet=0;

k = 1;

packet_size  = 1;
num_vcs      = 4;
vc_allocator = separable_input_first; 
sw_allocator = separable_input_first;

alloc_iters   = 1;
sample_period = 500;

wait_for_tail_credit = 0;
use_read_write       = 0;

credit_delay   = 2;
routing_delay  = 0;
vc_alloc_delay = 1;
sw_alloc_delay = 1;
st_final_delay = 1;

input_speedup     = 1;
output_speedup    = 1;
internal_speedup  = 2.0;

warmup_periods = 3;
sim_count      = 1;

priority = none;
injection_rate_uses_flits=1;

END Configuration File: ./HC.conf
========================Network File Parsed=================
******************node listing**********************

****************router to node listing*************

*****************router to router listing************
Number of nodes: 128
Number of routers: 128
==========================Node to Router =====================
==========================Router to Router =====================
========================== Build Routing table  =====================
Start searching...Routing table for router 0 done  |Start searching...Routing table for router 1 done  |Start searching...Routing table for router 2 done  |Start searching...Routing table for router 3 done  |Start searching...Routing table for router 4 done  |Start searching...Routing table for router 5 done  |Start searching...Routing table for router 6 done  |Start searching...Routing table for router 7 done  |Start searching...Routing table for router 8 done  |Start searching...Routing table for router 9 done  |Start searching...Routing table for router 10 done  |Start searching...Routing table for router 11 done  |Start searching...Routing table for router 12 done  |Start searching...Routing table for router 13 done  |Start searching...Routing table for router 14 done  |Start searching...Routing table for router 15 done  |Start searching...Routing table for router 16 done  |Start searching...Routing table for router 17 done  |Start searching...Routing table for router 18 done  |Start searching...Routing table for router 19 done  |Start searching...Routing table for router 20 done  |Start searching...Routing table for router 21 done  |Start searching...Routing table for router 22 done  |Start searching...Routing table for router 23 done  |Start searching...Routing table for router 24 done  |Start searching...Routing table for router 25 done  |Start searching...Routing table for router 26 done  |Start searching...Routing table for router 27 done  |Start searching...Routing table for router 28 done  |Start searching...Routing table for router 29 done  |Start searching...Routing table for router 30 done  |Start searching...Routing table for router 31 done  |Start searching...Routing table for router 32 done  |Start searching...Routing table for router 33 done  |Start searching...Routing table for router 34 done  |Start searching...Routing table for router 35 done  |Start searching...Routing table for router 36 done  |Start searching...Routing table for router 37 done  |Start searching...Routing table for router 38 done  |Start searching...Routing table for router 39 done  |Start searching...Routing table for router 40 done  |Start searching...Routing table for router 41 done  |Start searching...Routing table for router 42 done  |Start searching...Routing table for router 43 done  |Start searching...Routing table for router 44 done  |Start searching...Routing table for router 45 done  |Start searching...Routing table for router 46 done  |Start searching...Routing table for router 47 done  |Start searching...Routing table for router 48 done  |Start searching...Routing table for router 49 done  |Start searching...Routing table for router 50 done  |Start searching...Routing table for router 51 done  |Start searching...Routing table for router 52 done  |Start searching...Routing table for router 53 done  |Start searching...Routing table for router 54 done  |Start searching...Routing table for router 55 done  |Start searching...Routing table for router 56 done  |Start searching...Routing table for router 57 done  |Start searching...Routing table for router 58 done  |Start searching...Routing table for router 59 done  |Start searching...Routing table for router 60 done  |Start searching...Routing table for router 61 done  |Start searching...Routing table for router 62 done  |Start searching...Routing table for router 63 done  |Start searching...Routing table for router 64 done  |Start searching...Routing table for router 65 done  |Start searching...Routing table for router 66 done  |Start searching...Routing table for router 67 done  |Start searching...Routing table for router 68 done  |Start searching...Routing table for router 69 done  |Start searching...Routing table for router 70 done  |Start searching...Routing table for router 71 done  |Start searching...Routing table for router 72 done  |Start searching...Routing table for router 73 done  |Start searching...Routing table for router 74 done  |Start searching...Routing table for router 75 done  |Start searching...Routing table for router 76 done  |Start searching...Routing table for router 77 done  |Start searching...Routing table for router 78 done  |Start searching...Routing table for router 79 done  |Start searching...Routing table for router 80 done  |Start searching...Routing table for router 81 done  |Start searching...Routing table for router 82 done  |Start searching...Routing table for router 83 done  |Start searching...Routing table for router 84 done  |Start searching...Routing table for router 85 done  |Start searching...Routing table for router 86 done  |Start searching...Routing table for router 87 done  |Start searching...Routing table for router 88 done  |Start searching...Routing table for router 89 done  |Start searching...Routing table for router 90 done  |Start searching...Routing table for router 91 done  |Start searching...Routing table for router 92 done  |Start searching...Routing table for router 93 done  |Start searching...Routing table for router 94 done  |Start searching...Routing table for router 95 done  |Start searching...Routing table for router 96 done  |Start searching...Routing table for router 97 done  |Start searching...Routing table for router 98 done  |Start searching...Routing table for router 99 done  |Start searching...Routing table for router 100 done  |Start searching...Routing table for router 101 done  |Start searching...Routing table for router 102 done  |Start searching...Routing table for router 103 done  |Start searching...Routing table for router 104 done  |Start searching...Routing table for router 105 done  |Start searching...Routing table for router 106 done  |Start searching...Routing table for router 107 done  |Start searching...Routing table for router 108 done  |Start searching...Routing table for router 109 done  |Start searching...Routing table for router 110 done  |Start searching...Routing table for router 111 done  |Start searching...Routing table for router 112 done  |Start searching...Routing table for router 113 done  |Start searching...Routing table for router 114 done  |Start searching...Routing table for router 115 done  |Start searching...Routing table for router 116 done  |Start searching...Routing table for router 117 done  |Start searching...Routing table for router 118 done  |Start searching...Routing table for router 119 done  |Start searching...Routing table for router 120 done  |Start searching...Routing table for router 121 done  |Start searching...Routing table for router 122 done  |Start searching...Routing table for router 123 done  |Start searching...Routing table for router 124 done  |Start searching...Routing table for router 125 done  |Start searching...Routing table for router 126 done  |Start searching...Routing table for router 127 done  |
========================== Build Routing table done  =====================

========================== Building Bad traffic pattern, type 2... ============================
=================== Finished building bad traffic pattern... ====================
Sum of nodes sending: 128
Sum of nodes: 128
0
Class 0:
Minimum packet latency = 5
Average packet latency = 15.6723
Maximum packet latency = 29
Minimum network latency = 5
Average network latency = 15.6723
Maximum network latency = 29
Slowest packet = 375
Minimum flit latency = 5
Average flit latency = 15.6723
Maximum flit latency = 29
Slowest flit = 375
Minimum fragmentation = 0
Average fragmentation = 0
Maximum fragmentation = 0
Minimum injected packet rate = 0.066 (at node 91)
Average injected packet rate = 0.098125
Maximum injected packet rate = 0.132 (at node 22)
Minimum accepted packet rate = 0.056 (at node 10)
Average accepted packet rate = 0.0947344
Maximum accepted packet rate = 0.136 (at node 24)
Minimum injected flit rate = 0.066 (at node 91)
Average injected flit rate = 0.098125
Maximum injected flit rate = 0.132 (at node 22)
Minimum accepted flit rate = 0.056 (at node 10)
Average accepted flit rate = 0.0947344
Maximum accepted flit rate = 0.136 (at node 24)
Average injected packet length = 1
Average accepted packet length = 1
Total in-flight flits = 217 (0 measured)
latency change    = 1
throughput change = 1
0
Class 0:
Minimum packet latency = 5
Average packet latency = 15.7149
Maximum packet latency = 30
Minimum network latency = 5
Average network latency = 15.7149
Maximum network latency = 30
Slowest packet = 10862
Minimum flit latency = 5
Average flit latency = 15.7149
Maximum flit latency = 30
Slowest flit = 10862
Minimum fragmentation = 0
Average fragmentation = 0
Maximum fragmentation = 0
Minimum injected packet rate = 0.078 (at node 91)
Average injected packet rate = 0.0990625
Maximum injected packet rate = 0.121 (at node 32)
Minimum accepted packet rate = 0.073 (at node 16)
Average accepted packet rate = 0.0976719
Maximum accepted packet rate = 0.137 (at node 80)
Minimum injected flit rate = 0.078 (at node 91)
Average injected flit rate = 0.0990625
Maximum injected flit rate = 0.121 (at node 32)
Minimum accepted flit rate = 0.073 (at node 16)
Average accepted flit rate = 0.0976719
Maximum accepted flit rate = 0.137 (at node 80)
Average injected packet length = 1
Average accepted packet length = 1
Total in-flight flits = 178 (0 measured)
latency change    = 0.00271405
throughput change = 0.0300752
0
Class 0:
Minimum packet latency = 5
Average packet latency = 15.7865
Maximum packet latency = 31
Minimum network latency = 5
Average network latency = 15.7865
Maximum network latency = 31
Slowest packet = 12477
Minimum flit latency = 5
Average flit latency = 15.7865
Maximum flit latency = 31
Slowest flit = 12477
Minimum fragmentation = 0
Average fragmentation = 0
Maximum fragmentation = 0
Minimum injected packet rate = 0.07 (at node 102)
Average injected packet rate = 0.098125
Maximum injected packet rate = 0.136 (at node 6)
Minimum accepted packet rate = 0.066 (at node 15)
Average accepted packet rate = 0.0976094
Maximum accepted packet rate = 0.136 (at node 125)
Minimum injected flit rate = 0.07 (at node 102)
Average injected flit rate = 0.098125
Maximum injected flit rate = 0.136 (at node 6)
Minimum accepted flit rate = 0.066 (at node 15)
Average accepted flit rate = 0.0976094
Maximum accepted flit rate = 0.136 (at node 125)
Average injected packet length = 1
Average accepted packet length = 1
Total in-flight flits = 211 (0 measured)
latency change    = 0.00453122
throughput change = 0.000640307
Warmed up ...Time used is 1500 cycles
1
Class 0:
Minimum packet latency = 5
Average packet latency = 15.7043
Maximum packet latency = 29
Minimum network latency = 5
Average network latency = 15.7043
Maximum network latency = 29
Slowest packet = 20536
Minimum flit latency = 5
Average flit latency = 15.7467
Maximum flit latency = 29
Slowest flit = 18623
Minimum fragmentation = 0
Average fragmentation = 0
Maximum fragmentation = 0
Minimum injected packet rate = 0.066 (at node 17)
Average injected packet rate = 0.100375
Maximum injected packet rate = 0.134 (at node 22)
Minimum accepted packet rate = 0.068 (at node 76)
Average accepted packet rate = 0.10025
Maximum accepted packet rate = 0.132 (at node 72)
Minimum injected flit rate = 0.066 (at node 17)
Average injected flit rate = 0.100375
Maximum injected flit rate = 0.134 (at node 22)
Minimum accepted flit rate = 0.068 (at node 76)
Average accepted flit rate = 0.10025
Maximum accepted flit rate = 0.132 (at node 72)
Average injected packet length = 1
Average accepted packet length = 1
Total in-flight flits = 219 (219 measured)
latency change    = 0.0052334
throughput change = 0.0263404
1
Class 0:
Minimum packet latency = 5
Average packet latency = 15.7216
Maximum packet latency = 30
Minimum network latency = 5
Average network latency = 15.7216
Maximum network latency = 30
Slowest packet = 30650
Minimum flit latency = 5
Average flit latency = 15.7426
Maximum flit latency = 30
Slowest flit = 30650
Minimum fragmentation = 0
Average fragmentation = 0
Maximum fragmentation = 0
Minimum injected packet rate = 0.074 (at node 116)
Average injected packet rate = 0.0998437
Maximum injected packet rate = 0.132 (at node 66)
Minimum accepted packet rate = 0.074 (at node 5)
Average accepted packet rate = 0.0999922
Maximum accepted packet rate = 0.134 (at node 31)
Minimum injected flit rate = 0.074 (at node 116)
Average injected flit rate = 0.0998437
Maximum injected flit rate = 0.132 (at node 66)
Minimum accepted flit rate = 0.074 (at node 5)
Average accepted flit rate = 0.0999922
Maximum accepted flit rate = 0.134 (at node 31)
Average injected packet length = 1
Average accepted packet length = 1
Total in-flight flits = 192 (192 measured)
latency change    = 0.00110478
throughput change = 0.00257833
1
Class 0:
Minimum packet latency = 5
Average packet latency = 15.7019
Maximum packet latency = 33
Minimum network latency = 5
Average network latency = 15.7019
Maximum network latency = 33
Slowest packet = 34998
Minimum flit latency = 5
Average flit latency = 15.7161
Maximum flit latency = 33
Slowest flit = 34998
Minimum fragmentation = 0
Average fragmentation = 0
Maximum fragmentation = 0
Minimum injected packet rate = 0.0793333 (at node 116)
Average injected packet rate = 0.099849
Maximum injected packet rate = 0.123333 (at node 21)
Minimum accepted packet rate = 0.074 (at node 17)
Average accepted packet rate = 0.0999167
Maximum accepted packet rate = 0.116667 (at node 7)
Minimum injected flit rate = 0.0793333 (at node 116)
Average injected flit rate = 0.099849
Maximum injected flit rate = 0.123333 (at node 21)
Minimum accepted flit rate = 0.074 (at node 17)
Average accepted flit rate = 0.0999167
Maximum accepted flit rate = 0.116667 (at node 7)
Average injected packet length = 1
Average accepted packet length = 1
Total in-flight flits = 198 (198 measured)
latency change    = 0.00125765
throughput change = 0.000755838
Draining all recorded packets ...
Draining remaining packets ...
Time taken is 3052 cycles
====== Traffic class 0 ======
Overall minimum packet latency = 5 (1 samples)
Overall average packet latency = 15.7133 (1 samples)
Overall maximum packet latency = 33 (1 samples)
Overall minimum network latency = 5 (1 samples)
Overall average network latency = 15.7133 (1 samples)
Overall maximum network latency = 33 (1 samples)
Overall minimum flit latency = 5 (1 samples)
Overall average flit latency = 15.7303 (1 samples)
Overall maximum flit latency = 33 (1 samples)
Overall minimum fragmentation = 0 (1 samples)
Overall average fragmentation = 0 (1 samples)
Overall maximum fragmentation = 0 (1 samples)
Overall minimum injected packet rate = 0.0793333 (1 samples)
Overall average injected packet rate = 0.099849 (1 samples)
Overall maximum injected packet rate = 0.123333 (1 samples)
Overall minimum accepted packet rate = 0.074 (1 samples)
Overall average accepted packet rate = 0.0999167 (1 samples)
Overall maximum accepted packet rate = 0.116667 (1 samples)
Overall minimum injected flit rate = 0.0793333 (1 samples)
Overall average injected flit rate = 0.099849 (1 samples)
Overall maximum injected flit rate = 0.123333 (1 samples)
Overall minimum accepted flit rate = 0.074 (1 samples)
Overall average accepted flit rate = 0.0999167 (1 samples)
Overall maximum accepted flit rate = 0.116667 (1 samples)
Overall average injected packet size = 1 (1 samples)
Overall average accepted packet size = 1 (1 samples)
Overall average hops = 4.49387 (1 samples)
Total run time 4.47434
