BEGIN Configuration File: ./T5D
injection_rate = 0.4;
traffic = uniform;
routing_function = dim_order;
vc_buf_size = 16;
topology = torus;
use_noc_latency = 0;
hold_switch_for_packet=0;

k = 6;
n = 5;

packet_size  = 1;
num_vcs      = 2;
vc_allocator = separable_input_first; 
sw_allocator = separable_input_first;

alloc_iters   = 1;
sample_period = 500;

wait_for_tail_credit = 0;
use_read_write       = 0;

credit_delay   = 2;
routing_delay  = 0;
vc_alloc_delay = 1;
sw_alloc_delay = 1;
st_final_delay = 1;

input_speedup     = 1;
output_speedup    = 1;
internal_speedup  = 2.0;

warmup_periods = 3;
sim_count      = 1;

priority = none;
injection_rate_uses_flits=1;

END Configuration File: ./T5D
Number of nodes: 7776
Number of routers: 7776
0
Class 0:
Minimum packet latency = 5
Average packet latency = 28.9416
Maximum packet latency = 61
Minimum network latency = 5
Average network latency = 28.9416
Maximum network latency = 61
Slowest packet = 1111545
Minimum flit latency = 5
Average flit latency = 28.9416
Maximum flit latency = 61
Slowest flit = 1111545
Minimum fragmentation = 0
Average fragmentation = 0
Maximum fragmentation = 0
Minimum injected packet rate = 0.31 (at node 7353)
Average injected packet rate = 0.399538
Maximum injected packet rate = 0.49 (at node 5954)
Minimum accepted packet rate = 0.276 (at node 189)
Average accepted packet rate = 0.376303
Maximum accepted packet rate = 0.486 (at node 4152)
Minimum injected flit rate = 0.31 (at node 7353)
Average injected flit rate = 0.399538
Maximum injected flit rate = 0.49 (at node 5954)
Minimum accepted flit rate = 0.276 (at node 189)
Average accepted flit rate = 0.376303
Maximum accepted flit rate = 0.486 (at node 4152)
Average injected packet length = 1
Average accepted packet length = 1
Total in-flight flits = 90335 (0 measured)
latency change    = 1
throughput change = 1
0
Class 0:
Minimum packet latency = 5
Average packet latency = 29.0043
Maximum packet latency = 63
Minimum network latency = 5
Average network latency = 29.0043
Maximum network latency = 63
Slowest packet = 2087730
Minimum flit latency = 5
Average flit latency = 29.0043
Maximum flit latency = 63
Slowest flit = 2087730
Minimum fragmentation = 0
Average fragmentation = 0
Maximum fragmentation = 0
Minimum injected packet rate = 0.338 (at node 2313)
Average injected packet rate = 0.399845
Maximum injected packet rate = 0.465 (at node 655)
Minimum accepted packet rate = 0.309 (at node 189)
Average accepted packet rate = 0.388239
Maximum accepted packet rate = 0.464 (at node 1007)
Minimum injected flit rate = 0.338 (at node 2313)
Average injected flit rate = 0.399845
Maximum injected flit rate = 0.465 (at node 655)
Minimum accepted flit rate = 0.309 (at node 189)
Average accepted flit rate = 0.388239
Maximum accepted flit rate = 0.464 (at node 1007)
Average injected packet length = 1
Average accepted packet length = 1
Total in-flight flits = 90246 (0 measured)
latency change    = 0.00216248
throughput change = 0.0307422
0
Class 0:
Minimum packet latency = 5
Average packet latency = 29.0772
Maximum packet latency = 63
Minimum network latency = 5
Average network latency = 29.0772
Maximum network latency = 63
Slowest packet = 3027458
Minimum flit latency = 5
Average flit latency = 29.0772
Maximum flit latency = 63
Slowest flit = 3027458
Minimum fragmentation = 0
Average fragmentation = 0
Maximum fragmentation = 0
Minimum injected packet rate = 0.316 (at node 4576)
Average injected packet rate = 0.399828
Maximum injected packet rate = 0.488 (at node 4727)
Minimum accepted packet rate = 0.302 (at node 3824)
Average accepted packet rate = 0.399781
Maximum accepted packet rate = 0.512 (at node 5825)
Minimum injected flit rate = 0.316 (at node 4576)
Average injected flit rate = 0.399828
Maximum injected flit rate = 0.488 (at node 4727)
Minimum accepted flit rate = 0.302 (at node 3824)
Average accepted flit rate = 0.399781
Maximum accepted flit rate = 0.512 (at node 5825)
Average injected packet length = 1
Average accepted packet length = 1
Total in-flight flits = 90429 (0 measured)
latency change    = 0.002505
throughput change = 0.0288716
Warmed up ...Time used is 1500 cycles
1
Class 0:
Minimum packet latency = 5
Average packet latency = 28.9596
Maximum packet latency = 61
Minimum network latency = 5
Average network latency = 28.9596
Maximum network latency = 61
Slowest packet = 5292102
Minimum flit latency = 5
Average flit latency = 29.0627
Maximum flit latency = 61
Slowest flit = 5292102
Minimum fragmentation = 0
Average fragmentation = 0
Maximum fragmentation = 0
Minimum injected packet rate = 0.324 (at node 2120)
Average injected packet rate = 0.399534
Maximum injected packet rate = 0.468 (at node 1068)
Minimum accepted packet rate = 0.306 (at node 2337)
Average accepted packet rate = 0.399607
Maximum accepted packet rate = 0.5 (at node 5041)
Minimum injected flit rate = 0.324 (at node 2120)
Average injected flit rate = 0.399534
Maximum injected flit rate = 0.468 (at node 1068)
Minimum accepted flit rate = 0.306 (at node 2337)
Average accepted flit rate = 0.399607
Maximum accepted flit rate = 0.5 (at node 5041)
Average injected packet length = 1
Average accepted packet length = 1
Total in-flight flits = 90145 (90145 measured)
latency change    = 0.00406077
throughput change = 0.000436386
1
Class 0:
Minimum packet latency = 5
Average packet latency = 29.0122
Maximum packet latency = 62
Minimum network latency = 5
Average network latency = 29.0122
Maximum network latency = 62
Slowest packet = 6688905
Minimum flit latency = 5
Average flit latency = 29.0622
Maximum flit latency = 62
Slowest flit = 6688905
Minimum fragmentation = 0
Average fragmentation = 0
Maximum fragmentation = 0
Minimum injected packet rate = 0.341 (at node 517)
Average injected packet rate = 0.399873
Maximum injected packet rate = 0.461 (at node 613)
Minimum accepted packet rate = 0.332 (at node 1780)
Average accepted packet rate = 0.399855
Maximum accepted packet rate = 0.477 (at node 416)
Minimum injected flit rate = 0.341 (at node 517)
Average injected flit rate = 0.399873
Maximum injected flit rate = 0.461 (at node 613)
Minimum accepted flit rate = 0.332 (at node 1780)
Average accepted flit rate = 0.399855
Maximum accepted flit rate = 0.477 (at node 416)
Average injected packet length = 1
Average accepted packet length = 1
Total in-flight flits = 90569 (90569 measured)
latency change    = 0.0018143
throughput change = 0.00062201
1
Class 0:
Minimum packet latency = 5
Average packet latency = 29.0339
Maximum packet latency = 62
Minimum network latency = 5
Average network latency = 29.0339
Maximum network latency = 62
Slowest packet = 6688905
Minimum flit latency = 5
Average flit latency = 29.0668
Maximum flit latency = 62
Slowest flit = 6688905
Minimum fragmentation = 0
Average fragmentation = 0
Maximum fragmentation = 0
Minimum injected packet rate = 0.349333 (at node 2474)
Average injected packet rate = 0.399982
Maximum injected packet rate = 0.448 (at node 613)
Minimum accepted packet rate = 0.338667 (at node 4785)
Average accepted packet rate = 0.399974
Maximum accepted packet rate = 0.452 (at node 1089)
Minimum injected flit rate = 0.349333 (at node 2474)
Average injected flit rate = 0.399982
Maximum injected flit rate = 0.448 (at node 613)
Minimum accepted flit rate = 0.338667 (at node 4785)
Average accepted flit rate = 0.399974
Maximum accepted flit rate = 0.452 (at node 1089)
Average injected packet length = 1
Average accepted packet length = 1
Total in-flight flits = 90517 (90517 measured)
latency change    = 0.000746435
throughput change = 0.000296873
Draining all recorded packets ...
Draining remaining packets ...
Time taken is 3108 cycles
====== Traffic class 0 ======
Overall minimum packet latency = 5 (1 samples)
Overall average packet latency = 29.067 (1 samples)
Overall maximum packet latency = 62 (1 samples)
Overall minimum network latency = 5 (1 samples)
Overall average network latency = 29.067 (1 samples)
Overall maximum network latency = 62 (1 samples)
Overall minimum flit latency = 5 (1 samples)
Overall average flit latency = 29.0944 (1 samples)
Overall maximum flit latency = 62 (1 samples)
Overall minimum fragmentation = 0 (1 samples)
Overall average fragmentation = 0 (1 samples)
Overall maximum fragmentation = 0 (1 samples)
Overall minimum injected packet rate = 0.349333 (1 samples)
Overall average injected packet rate = 0.399982 (1 samples)
Overall maximum injected packet rate = 0.448 (1 samples)
Overall minimum accepted packet rate = 0.338667 (1 samples)
Overall average accepted packet rate = 0.399974 (1 samples)
Overall maximum accepted packet rate = 0.452 (1 samples)
Overall minimum injected flit rate = 0.349333 (1 samples)
Overall average injected flit rate = 0.399982 (1 samples)
Overall maximum injected flit rate = 0.448 (1 samples)
Overall minimum accepted flit rate = 0.338667 (1 samples)
Overall average accepted flit rate = 0.399974 (1 samples)
Overall maximum accepted flit rate = 0.452 (1 samples)
Overall average injected packet size = 1 (1 samples)
Overall average accepted packet size = 1 (1 samples)
Overall average hops = 8.49852 (1 samples)
Total run time 1327.46
