BEGIN Configuration File: ./T5D
injection_rate = 0.8;
traffic = uniform;
routing_function = dim_order;
vc_buf_size = 16;
topology = torus;
use_noc_latency = 0;
hold_switch_for_packet=0;

k = 6;
n = 5;

packet_size  = 1;
num_vcs      = 2;
vc_allocator = separable_input_first; 
sw_allocator = separable_input_first;

alloc_iters   = 1;
sample_period = 500;

wait_for_tail_credit = 0;
use_read_write       = 0;

credit_delay   = 2;
routing_delay  = 0;
vc_alloc_delay = 1;
sw_alloc_delay = 1;
st_final_delay = 1;

input_speedup     = 1;
output_speedup    = 1;
internal_speedup  = 2.0;

warmup_periods = 3;
sim_count      = 1;

priority = none;
injection_rate_uses_flits=1;

END Configuration File: ./T5D
Number of nodes: 7776
Number of routers: 7776
0
Class 0:
Minimum packet latency = 5
Average packet latency = 36.7869
Maximum packet latency = 131
Minimum network latency = 5
Average network latency = 36.7869
Maximum network latency = 131
Slowest packet = 1946756
Minimum flit latency = 5
Average flit latency = 36.7869
Maximum flit latency = 131
Slowest flit = 1946756
Minimum fragmentation = 0
Average fragmentation = 0
Maximum fragmentation = 0
Minimum injected packet rate = 0.73 (at node 7486)
Average injected packet rate = 0.799721
Maximum injected packet rate = 0.858 (at node 4692)
Minimum accepted packet rate = 0.62 (at node 5725)
Average accepted packet rate = 0.739393
Maximum accepted packet rate = 0.88 (at node 6264)
Minimum injected flit rate = 0.73 (at node 7486)
Average injected flit rate = 0.799721
Maximum injected flit rate = 0.858 (at node 4692)
Minimum accepted flit rate = 0.62 (at node 5725)
Average accepted flit rate = 0.739393
Maximum accepted flit rate = 0.88 (at node 6264)
Average injected packet length = 1
Average accepted packet length = 1
Total in-flight flits = 234556 (0 measured)
latency change    = 1
throughput change = 1
0
Class 0:
Minimum packet latency = 5
Average packet latency = 37.2683
Maximum packet latency = 148
Minimum network latency = 5
Average network latency = 37.2683
Maximum network latency = 148
Slowest packet = 4925325
Minimum flit latency = 5
Average flit latency = 37.2683
Maximum flit latency = 148
Slowest flit = 4925325
Minimum fragmentation = 0
Average fragmentation = 0
Maximum fragmentation = 0
Minimum injected packet rate = 0.745 (at node 1578)
Average injected packet rate = 0.799917
Maximum injected packet rate = 0.846 (at node 4692)
Minimum accepted packet rate = 0.681 (at node 283)
Average accepted packet rate = 0.769711
Maximum accepted packet rate = 0.892 (at node 6264)
Minimum injected flit rate = 0.745 (at node 1578)
Average injected flit rate = 0.799917
Maximum injected flit rate = 0.846 (at node 4692)
Minimum accepted flit rate = 0.681 (at node 283)
Average accepted flit rate = 0.769711
Maximum accepted flit rate = 0.892 (at node 6264)
Average injected packet length = 1
Average accepted packet length = 1
Total in-flight flits = 234888 (0 measured)
latency change    = 0.0129166
throughput change = 0.0393884
0
Class 0:
Minimum packet latency = 5
Average packet latency = 37.6703
Maximum packet latency = 216
Minimum network latency = 5
Average network latency = 37.6696
Maximum network latency = 216
Slowest packet = 6057669
Minimum flit latency = 5
Average flit latency = 37.6696
Maximum flit latency = 216
Slowest flit = 6057669
Minimum fragmentation = 0
Average fragmentation = 0
Maximum fragmentation = 0
Minimum injected packet rate = 0.72 (at node 3170)
Average injected packet rate = 0.799882
Maximum injected packet rate = 0.866 (at node 3576)
Minimum accepted packet rate = 0.66 (at node 2737)
Average accepted packet rate = 0.800023
Maximum accepted packet rate = 0.948 (at node 2679)
Minimum injected flit rate = 0.72 (at node 3170)
Average injected flit rate = 0.799882
Maximum injected flit rate = 0.866 (at node 3576)
Minimum accepted flit rate = 0.66 (at node 2737)
Average accepted flit rate = 0.800023
Maximum accepted flit rate = 0.948 (at node 2679)
Average injected packet length = 1
Average accepted packet length = 1
Total in-flight flits = 234339 (0 measured)
latency change    = 0.0106701
throughput change = 0.0378895
Warmed up ...Time used is 1500 cycles
1
Class 0:
Minimum packet latency = 5
Average packet latency = 37.3832
Maximum packet latency = 157
Minimum network latency = 5
Average network latency = 37.3831
Maximum network latency = 157
Slowest packet = 10941246
Minimum flit latency = 5
Average flit latency = 37.6436
Maximum flit latency = 157
Slowest flit = 10941246
Minimum fragmentation = 0
Average fragmentation = 0
Maximum fragmentation = 0
Minimum injected packet rate = 0.718 (at node 3800)
Average injected packet rate = 0.799847
Maximum injected packet rate = 0.868 (at node 761)
Minimum accepted packet rate = 0.652 (at node 1576)
Average accepted packet rate = 0.79987
Maximum accepted packet rate = 0.936 (at node 1702)
Minimum injected flit rate = 0.718 (at node 3800)
Average injected flit rate = 0.799847
Maximum injected flit rate = 0.868 (at node 761)
Minimum accepted flit rate = 0.652 (at node 1576)
Average accepted flit rate = 0.79987
Maximum accepted flit rate = 0.936 (at node 1702)
Average injected packet length = 1
Average accepted packet length = 1
Total in-flight flits = 234253 (234253 measured)
latency change    = 0.00767921
throughput change = 0.000191646
1
Class 0:
Minimum packet latency = 5
Average packet latency = 37.5419
Maximum packet latency = 211
Minimum network latency = 5
Average network latency = 37.5384
Maximum network latency = 197
Slowest packet = 11879850
Minimum flit latency = 5
Average flit latency = 37.6628
Maximum flit latency = 197
Slowest flit = 11879850
Minimum fragmentation = 0
Average fragmentation = 0
Maximum fragmentation = 0
Minimum injected packet rate = 0.75 (at node 7682)
Average injected packet rate = 0.800006
Maximum injected packet rate = 0.84 (at node 1466)
Minimum accepted packet rate = 0.701 (at node 5995)
Average accepted packet rate = 0.800012
Maximum accepted packet rate = 0.898 (at node 292)
Minimum injected flit rate = 0.75 (at node 7682)
Average injected flit rate = 0.800006
Maximum injected flit rate = 0.84 (at node 1466)
Minimum accepted flit rate = 0.701 (at node 5995)
Average accepted flit rate = 0.800012
Maximum accepted flit rate = 0.898 (at node 292)
Average injected packet length = 1
Average accepted packet length = 1
Total in-flight flits = 234293 (234293 measured)
latency change    = 0.00422759
throughput change = 0.000177949
1
Class 0:
Minimum packet latency = 5
Average packet latency = 37.5842
Maximum packet latency = 211
Minimum network latency = 5
Average network latency = 37.5819
Maximum network latency = 197
Slowest packet = 11879850
Minimum flit latency = 5
Average flit latency = 37.6637
Maximum flit latency = 197
Slowest flit = 11879850
Minimum fragmentation = 0
Average fragmentation = 0
Maximum fragmentation = 0
Minimum injected packet rate = 0.759333 (at node 4566)
Average injected packet rate = 0.800058
Maximum injected packet rate = 0.835333 (at node 3043)
Minimum accepted packet rate = 0.719333 (at node 279)
Average accepted packet rate = 0.800005
Maximum accepted packet rate = 0.893333 (at node 2690)
Minimum injected flit rate = 0.759333 (at node 4566)
Average injected flit rate = 0.800058
Maximum injected flit rate = 0.835333 (at node 3043)
Minimum accepted flit rate = 0.719333 (at node 279)
Average accepted flit rate = 0.800005
Maximum accepted flit rate = 0.893333 (at node 2690)
Average injected packet length = 1
Average accepted packet length = 1
Total in-flight flits = 234956 (234956 measured)
latency change    = 0.00112447
throughput change = 9.16275e-06
Draining all recorded packets ...
Draining remaining packets ...
Time taken is 3166 cycles
====== Traffic class 0 ======
Overall minimum packet latency = 5 (1 samples)
Overall average packet latency = 37.6666 (1 samples)
Overall maximum packet latency = 211 (1 samples)
Overall minimum network latency = 5 (1 samples)
Overall average network latency = 37.6643 (1 samples)
Overall maximum network latency = 197 (1 samples)
Overall minimum flit latency = 5 (1 samples)
Overall average flit latency = 37.7132 (1 samples)
Overall maximum flit latency = 197 (1 samples)
Overall minimum fragmentation = 0 (1 samples)
Overall average fragmentation = 0 (1 samples)
Overall maximum fragmentation = 0 (1 samples)
Overall minimum injected packet rate = 0.759333 (1 samples)
Overall average injected packet rate = 0.800058 (1 samples)
Overall maximum injected packet rate = 0.835333 (1 samples)
Overall minimum accepted packet rate = 0.719333 (1 samples)
Overall average accepted packet rate = 0.800005 (1 samples)
Overall maximum accepted packet rate = 0.893333 (1 samples)
Overall minimum injected flit rate = 0.759333 (1 samples)
Overall average injected flit rate = 0.800058 (1 samples)
Overall maximum injected flit rate = 0.835333 (1 samples)
Overall minimum accepted flit rate = 0.719333 (1 samples)
Overall average accepted flit rate = 0.800005 (1 samples)
Overall maximum accepted flit rate = 0.893333 (1 samples)
Overall average injected packet size = 1 (1 samples)
Overall average accepted packet size = 1 (1 samples)
Overall average hops = 8.50086 (1 samples)
Total run time 2430.71
