BEGIN Configuration File: ./T5D
injection_rate = 0.75;
traffic = uniform;
routing_function = dim_order;
vc_buf_size = 16;
topology = torus;
use_noc_latency = 0;
hold_switch_for_packet=0;

k = 6;
n = 5;

packet_size  = 1;
num_vcs      = 2;
vc_allocator = separable_input_first; 
sw_allocator = separable_input_first;

alloc_iters   = 1;
sample_period = 500;

wait_for_tail_credit = 0;
use_read_write       = 0;

credit_delay   = 2;
routing_delay  = 0;
vc_alloc_delay = 1;
sw_alloc_delay = 1;
st_final_delay = 1;

input_speedup     = 1;
output_speedup    = 1;
internal_speedup  = 2.0;

warmup_periods = 3;
sim_count      = 1;

priority = none;
injection_rate_uses_flits=1;

END Configuration File: ./T5D
Number of nodes: 7776
Number of routers: 7776
0
Class 0:
Minimum packet latency = 5
Average packet latency = 34.5468
Maximum packet latency = 97
Minimum network latency = 5
Average network latency = 34.5468
Maximum network latency = 97
Slowest packet = 1057195
Minimum flit latency = 5
Average flit latency = 34.5468
Maximum flit latency = 97
Slowest flit = 1057195
Minimum fragmentation = 0
Average fragmentation = 0
Maximum fragmentation = 0
Minimum injected packet rate = 0.68 (at node 1579)
Average injected packet rate = 0.749707
Maximum injected packet rate = 0.82 (at node 4870)
Minimum accepted packet rate = 0.57 (at node 2940)
Average accepted packet rate = 0.697191
Maximum accepted packet rate = 0.828 (at node 6891)
Minimum injected flit rate = 0.68 (at node 1579)
Average injected flit rate = 0.749707
Maximum injected flit rate = 0.82 (at node 4870)
Minimum accepted flit rate = 0.57 (at node 2940)
Average accepted flit rate = 0.697191
Maximum accepted flit rate = 0.828 (at node 6891)
Average injected packet length = 1
Average accepted packet length = 1
Total in-flight flits = 204183 (0 measured)
latency change    = 1
throughput change = 1
0
Class 0:
Minimum packet latency = 5
Average packet latency = 34.7985
Maximum packet latency = 103
Minimum network latency = 5
Average network latency = 34.7985
Maximum network latency = 103
Slowest packet = 4801373
Minimum flit latency = 5
Average flit latency = 34.7985
Maximum flit latency = 103
Slowest flit = 4801373
Minimum fragmentation = 0
Average fragmentation = 0
Maximum fragmentation = 0
Minimum injected packet rate = 0.696 (at node 2866)
Average injected packet rate = 0.749903
Maximum injected packet rate = 0.798 (at node 2851)
Minimum accepted packet rate = 0.633 (at node 2940)
Average accepted packet rate = 0.723603
Maximum accepted packet rate = 0.815 (at node 4218)
Minimum injected flit rate = 0.696 (at node 2866)
Average injected flit rate = 0.749903
Maximum injected flit rate = 0.798 (at node 2851)
Minimum accepted flit rate = 0.633 (at node 2940)
Average accepted flit rate = 0.723603
Maximum accepted flit rate = 0.815 (at node 4218)
Average injected packet length = 1
Average accepted packet length = 1
Total in-flight flits = 204507 (0 measured)
latency change    = 0.00723263
throughput change = 0.0365009
0
Class 0:
Minimum packet latency = 5
Average packet latency = 35.0121
Maximum packet latency = 109
Minimum network latency = 5
Average network latency = 35.0121
Maximum network latency = 109
Slowest packet = 5903157
Minimum flit latency = 5
Average flit latency = 35.0121
Maximum flit latency = 109
Slowest flit = 5903157
Minimum fragmentation = 0
Average fragmentation = 0
Maximum fragmentation = 0
Minimum injected packet rate = 0.662 (at node 3170)
Average injected packet rate = 0.749881
Maximum injected packet rate = 0.828 (at node 3576)
Minimum accepted packet rate = 0.614 (at node 6403)
Average accepted packet rate = 0.749946
Maximum accepted packet rate = 0.894 (at node 3839)
Minimum injected flit rate = 0.662 (at node 3170)
Average injected flit rate = 0.749881
Maximum injected flit rate = 0.828 (at node 3576)
Minimum accepted flit rate = 0.614 (at node 6403)
Average accepted flit rate = 0.749946
Maximum accepted flit rate = 0.894 (at node 3839)
Average injected packet length = 1
Average accepted packet length = 1
Total in-flight flits = 204252 (0 measured)
latency change    = 0.00609954
throughput change = 0.0351265
Warmed up ...Time used is 1500 cycles
1
Class 0:
Minimum packet latency = 5
Average packet latency = 34.8423
Maximum packet latency = 105
Minimum network latency = 5
Average network latency = 34.8423
Maximum network latency = 105
Slowest packet = 8813215
Minimum flit latency = 5
Average flit latency = 35.0387
Maximum flit latency = 105
Slowest flit = 8813215
Minimum fragmentation = 0
Average fragmentation = 0
Maximum fragmentation = 0
Minimum injected packet rate = 0.666 (at node 6974)
Average injected packet rate = 0.749814
Maximum injected packet rate = 0.814 (at node 5367)
Minimum accepted packet rate = 0.622 (at node 7473)
Average accepted packet rate = 0.749759
Maximum accepted packet rate = 0.902 (at node 6107)
Minimum injected flit rate = 0.666 (at node 6974)
Average injected flit rate = 0.749814
Maximum injected flit rate = 0.814 (at node 5367)
Minimum accepted flit rate = 0.622 (at node 7473)
Average accepted flit rate = 0.749759
Maximum accepted flit rate = 0.902 (at node 6107)
Average injected packet length = 1
Average accepted packet length = 1
Total in-flight flits = 204466 (204466 measured)
latency change    = 0.00487247
throughput change = 0.00025008
1
Class 0:
Minimum packet latency = 5
Average packet latency = 34.9429
Maximum packet latency = 110
Minimum network latency = 5
Average network latency = 34.9429
Maximum network latency = 110
Slowest packet = 11148257
Minimum flit latency = 5
Average flit latency = 35.0375
Maximum flit latency = 110
Slowest flit = 11148257
Minimum fragmentation = 0
Average fragmentation = 0
Maximum fragmentation = 0
Minimum injected packet rate = 0.695 (at node 3689)
Average injected packet rate = 0.749934
Maximum injected packet rate = 0.798 (at node 1653)
Minimum accepted packet rate = 0.655 (at node 4488)
Average accepted packet rate = 0.749933
Maximum accepted packet rate = 0.852 (at node 6134)
Minimum injected flit rate = 0.695 (at node 3689)
Average injected flit rate = 0.749934
Maximum injected flit rate = 0.798 (at node 1653)
Minimum accepted flit rate = 0.655 (at node 4488)
Average accepted flit rate = 0.749933
Maximum accepted flit rate = 0.852 (at node 6134)
Average injected packet length = 1
Average accepted packet length = 1
Total in-flight flits = 204260 (204260 measured)
latency change    = 0.00287907
throughput change = 0.000232702
1
Class 0:
Minimum packet latency = 5
Average packet latency = 34.9793
Maximum packet latency = 120
Minimum network latency = 5
Average network latency = 34.9793
Maximum network latency = 120
Slowest packet = 16415946
Minimum flit latency = 5
Average flit latency = 35.0415
Maximum flit latency = 120
Slowest flit = 16415946
Minimum fragmentation = 0
Average fragmentation = 0
Maximum fragmentation = 0
Minimum injected packet rate = 0.709333 (at node 6809)
Average injected packet rate = 0.750053
Maximum injected packet rate = 0.792 (at node 2408)
Minimum accepted packet rate = 0.666 (at node 3897)
Average accepted packet rate = 0.750042
Maximum accepted packet rate = 0.831333 (at node 4177)
Minimum injected flit rate = 0.709333 (at node 6809)
Average injected flit rate = 0.750053
Maximum injected flit rate = 0.792 (at node 2408)
Minimum accepted flit rate = 0.666 (at node 3897)
Average accepted flit rate = 0.750042
Maximum accepted flit rate = 0.831333 (at node 4177)
Average injected packet length = 1
Average accepted packet length = 1
Total in-flight flits = 204378 (204378 measured)
latency change    = 0.00103989
throughput change = 0.000144654
Draining all recorded packets ...
Draining remaining packets ...
Time taken is 3148 cycles
====== Traffic class 0 ======
Overall minimum packet latency = 5 (1 samples)
Overall average packet latency = 35.0407 (1 samples)
Overall maximum packet latency = 120 (1 samples)
Overall minimum network latency = 5 (1 samples)
Overall average network latency = 35.0407 (1 samples)
Overall maximum network latency = 120 (1 samples)
Overall minimum flit latency = 5 (1 samples)
Overall average flit latency = 35.0793 (1 samples)
Overall maximum flit latency = 120 (1 samples)
Overall minimum fragmentation = 0 (1 samples)
Overall average fragmentation = 0 (1 samples)
Overall maximum fragmentation = 0 (1 samples)
Overall minimum injected packet rate = 0.709333 (1 samples)
Overall average injected packet rate = 0.750053 (1 samples)
Overall maximum injected packet rate = 0.792 (1 samples)
Overall minimum accepted packet rate = 0.666 (1 samples)
Overall average accepted packet rate = 0.750042 (1 samples)
Overall maximum accepted packet rate = 0.831333 (1 samples)
Overall minimum injected flit rate = 0.709333 (1 samples)
Overall average injected flit rate = 0.750053 (1 samples)
Overall maximum injected flit rate = 0.792 (1 samples)
Overall minimum accepted flit rate = 0.666 (1 samples)
Overall average accepted flit rate = 0.750042 (1 samples)
Overall maximum accepted flit rate = 0.831333 (1 samples)
Overall average injected packet size = 1 (1 samples)
Overall average accepted packet size = 1 (1 samples)
Overall average hops = 8.49984 (1 samples)
Total run time 2264.33
