BEGIN Configuration File: ./T5D
injection_rate = 0.3;
traffic = uniform;
routing_function = dim_order;
vc_buf_size = 16;
topology = torus;
use_noc_latency = 0;
hold_switch_for_packet=0;

k = 6;
n = 5;

packet_size  = 1;
num_vcs      = 2;
vc_allocator = separable_input_first; 
sw_allocator = separable_input_first;

alloc_iters   = 1;
sample_period = 500;

wait_for_tail_credit = 0;
use_read_write       = 0;

credit_delay   = 2;
routing_delay  = 0;
vc_alloc_delay = 1;
sw_alloc_delay = 1;
st_final_delay = 1;

input_speedup     = 1;
output_speedup    = 1;
internal_speedup  = 2.0;

warmup_periods = 3;
sim_count      = 1;

priority = none;
injection_rate_uses_flits=1;

END Configuration File: ./T5D
Number of nodes: 7776
Number of routers: 7776
0
Class 0:
Minimum packet latency = 5
Average packet latency = 28.3966
Maximum packet latency = 60
Minimum network latency = 5
Average network latency = 28.3966
Maximum network latency = 60
Slowest packet = 729010
Minimum flit latency = 5
Average flit latency = 28.3966
Maximum flit latency = 60
Slowest flit = 729010
Minimum fragmentation = 0
Average fragmentation = 0
Maximum fragmentation = 0
Minimum injected packet rate = 0.23 (at node 1623)
Average injected packet rate = 0.299627
Maximum injected packet rate = 0.374 (at node 1859)
Minimum accepted packet rate = 0.194 (at node 6039)
Average accepted packet rate = 0.28251
Maximum accepted packet rate = 0.374 (at node 1994)
Minimum injected flit rate = 0.23 (at node 1623)
Average injected flit rate = 0.299627
Maximum injected flit rate = 0.374 (at node 1859)
Minimum accepted flit rate = 0.194 (at node 6039)
Average accepted flit rate = 0.28251
Maximum accepted flit rate = 0.374 (at node 1994)
Average injected packet length = 1
Average accepted packet length = 1
Total in-flight flits = 66550 (0 measured)
latency change    = 1
throughput change = 1
0
Class 0:
Minimum packet latency = 5
Average packet latency = 28.441
Maximum packet latency = 60
Minimum network latency = 5
Average network latency = 28.441
Maximum network latency = 60
Slowest packet = 729010
Minimum flit latency = 5
Average flit latency = 28.441
Maximum flit latency = 60
Slowest flit = 729010
Minimum fragmentation = 0
Average fragmentation = 0
Maximum fragmentation = 0
Minimum injected packet rate = 0.251 (at node 6348)
Average injected packet rate = 0.299903
Maximum injected packet rate = 0.357 (at node 796)
Minimum accepted packet rate = 0.227 (at node 6106)
Average accepted packet rate = 0.291372
Maximum accepted packet rate = 0.358 (at node 3276)
Minimum injected flit rate = 0.251 (at node 6348)
Average injected flit rate = 0.299903
Maximum injected flit rate = 0.357 (at node 796)
Minimum accepted flit rate = 0.227 (at node 6106)
Average accepted flit rate = 0.291372
Maximum accepted flit rate = 0.358 (at node 3276)
Average injected packet length = 1
Average accepted packet length = 1
Total in-flight flits = 66342 (0 measured)
latency change    = 0.00156302
throughput change = 0.0304126
0
Class 0:
Minimum packet latency = 5
Average packet latency = 28.4694
Maximum packet latency = 61
Minimum network latency = 5
Average network latency = 28.4694
Maximum network latency = 61
Slowest packet = 2385148
Minimum flit latency = 5
Average flit latency = 28.4694
Maximum flit latency = 61
Slowest flit = 2385148
Minimum fragmentation = 0
Average fragmentation = 0
Maximum fragmentation = 0
Minimum injected packet rate = 0.226 (at node 4576)
Average injected packet rate = 0.300034
Maximum injected packet rate = 0.372 (at node 3162)
Minimum accepted packet rate = 0.21 (at node 5354)
Average accepted packet rate = 0.299932
Maximum accepted packet rate = 0.404 (at node 6668)
Minimum injected flit rate = 0.226 (at node 4576)
Average injected flit rate = 0.300034
Maximum injected flit rate = 0.372 (at node 3162)
Minimum accepted flit rate = 0.21 (at node 5354)
Average accepted flit rate = 0.299932
Maximum accepted flit rate = 0.404 (at node 6668)
Average injected packet length = 1
Average accepted packet length = 1
Total in-flight flits = 66738 (0 measured)
latency change    = 0.000996821
throughput change = 0.0285404
Warmed up ...Time used is 1500 cycles
1
Class 0:
Minimum packet latency = 5
Average packet latency = 28.4065
Maximum packet latency = 57
Minimum network latency = 5
Average network latency = 28.4065
Maximum network latency = 57
Slowest packet = 3734142
Minimum flit latency = 5
Average flit latency = 28.5027
Maximum flit latency = 57
Slowest flit = 3734142
Minimum fragmentation = 0
Average fragmentation = 0
Maximum fragmentation = 0
Minimum injected packet rate = 0.224 (at node 2761)
Average injected packet rate = 0.299705
Maximum injected packet rate = 0.378 (at node 4017)
Minimum accepted packet rate = 0.2 (at node 7369)
Average accepted packet rate = 0.299818
Maximum accepted packet rate = 0.396 (at node 6919)
Minimum injected flit rate = 0.224 (at node 2761)
Average injected flit rate = 0.299705
Maximum injected flit rate = 0.378 (at node 4017)
Minimum accepted flit rate = 0.2 (at node 7369)
Average accepted flit rate = 0.299818
Maximum accepted flit rate = 0.396 (at node 6919)
Average injected packet length = 1
Average accepted packet length = 1
Total in-flight flits = 66297 (66297 measured)
latency change    = 0.00221511
throughput change = 0.000379174
1
Class 0:
Minimum packet latency = 5
Average packet latency = 28.4511
Maximum packet latency = 57
Minimum network latency = 5
Average network latency = 28.4511
Maximum network latency = 57
Slowest packet = 3734142
Minimum flit latency = 5
Average flit latency = 28.4979
Maximum flit latency = 57
Slowest flit = 3734142
Minimum fragmentation = 0
Average fragmentation = 0
Maximum fragmentation = 0
Minimum injected packet rate = 0.252 (at node 517)
Average injected packet rate = 0.299948
Maximum injected packet rate = 0.352 (at node 3530)
Minimum accepted packet rate = 0.231 (at node 695)
Average accepted packet rate = 0.299977
Maximum accepted packet rate = 0.367 (at node 5084)
Minimum injected flit rate = 0.252 (at node 517)
Average injected flit rate = 0.299948
Maximum injected flit rate = 0.352 (at node 3530)
Minimum accepted flit rate = 0.231 (at node 695)
Average accepted flit rate = 0.299977
Maximum accepted flit rate = 0.367 (at node 5084)
Average injected packet length = 1
Average accepted packet length = 1
Total in-flight flits = 66513 (66513 measured)
latency change    = 0.00156724
throughput change = 0.000529447
1
Class 0:
Minimum packet latency = 5
Average packet latency = 28.4649
Maximum packet latency = 57
Minimum network latency = 5
Average network latency = 28.4649
Maximum network latency = 57
Slowest packet = 3734142
Minimum flit latency = 5
Average flit latency = 28.4958
Maximum flit latency = 57
Slowest flit = 3734142
Minimum fragmentation = 0
Average fragmentation = 0
Maximum fragmentation = 0
Minimum injected packet rate = 0.258 (at node 600)
Average injected packet rate = 0.30003
Maximum injected packet rate = 0.341333 (at node 2774)
Minimum accepted packet rate = 0.248667 (at node 2624)
Average accepted packet rate = 0.300055
Maximum accepted packet rate = 0.363333 (at node 5084)
Minimum injected flit rate = 0.258 (at node 600)
Average injected flit rate = 0.30003
Maximum injected flit rate = 0.341333 (at node 2774)
Minimum accepted flit rate = 0.248667 (at node 2624)
Average accepted flit rate = 0.300055
Maximum accepted flit rate = 0.363333 (at node 5084)
Average injected packet length = 1
Average accepted packet length = 1
Total in-flight flits = 66452 (66452 measured)
latency change    = 0.000485978
throughput change = 0.000258726
Draining all recorded packets ...
Draining remaining packets ...
Time taken is 3105 cycles
====== Traffic class 0 ======
Overall minimum packet latency = 5 (1 samples)
Overall average packet latency = 28.4961 (1 samples)
Overall maximum packet latency = 58 (1 samples)
Overall minimum network latency = 5 (1 samples)
Overall average network latency = 28.4961 (1 samples)
Overall maximum network latency = 58 (1 samples)
Overall minimum flit latency = 5 (1 samples)
Overall average flit latency = 28.5222 (1 samples)
Overall maximum flit latency = 58 (1 samples)
Overall minimum fragmentation = 0 (1 samples)
Overall average fragmentation = 0 (1 samples)
Overall maximum fragmentation = 0 (1 samples)
Overall minimum injected packet rate = 0.258 (1 samples)
Overall average injected packet rate = 0.30003 (1 samples)
Overall maximum injected packet rate = 0.341333 (1 samples)
Overall minimum accepted packet rate = 0.248667 (1 samples)
Overall average accepted packet rate = 0.300055 (1 samples)
Overall maximum accepted packet rate = 0.363333 (1 samples)
Overall minimum injected flit rate = 0.258 (1 samples)
Overall average injected flit rate = 0.30003 (1 samples)
Overall maximum injected flit rate = 0.341333 (1 samples)
Overall minimum accepted flit rate = 0.248667 (1 samples)
Overall average accepted flit rate = 0.300055 (1 samples)
Overall maximum accepted flit rate = 0.363333 (1 samples)
Overall average injected packet size = 1 (1 samples)
Overall average accepted packet size = 1 (1 samples)
Overall average hops = 8.50225 (1 samples)
Total run time 1057.64
