BEGIN Configuration File: ./T5D
injection_rate = 0.9;
traffic = uniform;
routing_function = dim_order;
vc_buf_size = 16;
topology = torus;
use_noc_latency = 0;
hold_switch_for_packet=0;

k = 6;
n = 5;

packet_size  = 1;
num_vcs      = 2;
vc_allocator = separable_input_first; 
sw_allocator = separable_input_first;

alloc_iters   = 1;
sample_period = 500;

wait_for_tail_credit = 0;
use_read_write       = 0;

credit_delay   = 2;
routing_delay  = 0;
vc_alloc_delay = 1;
sw_alloc_delay = 1;
st_final_delay = 1;

input_speedup     = 1;
output_speedup    = 1;
internal_speedup  = 2.0;

warmup_periods = 3;
sim_count      = 1;

priority = none;
injection_rate_uses_flits=1;

END Configuration File: ./T5D
Number of nodes: 7776
Number of routers: 7776
0
Class 0:
Minimum packet latency = 5
Average packet latency = 46.0564
Maximum packet latency = 232
Minimum network latency = 5
Average network latency = 46.019
Maximum network latency = 232
Slowest packet = 1841008
Minimum flit latency = 5
Average flit latency = 46.019
Maximum flit latency = 232
Slowest flit = 1841008
Minimum fragmentation = 0
Average fragmentation = 0
Maximum fragmentation = 0
Minimum injected packet rate = 0.686 (at node 3295)
Average injected packet rate = 0.896831
Maximum injected packet rate = 0.946 (at node 1975)
Minimum accepted packet rate = 0.654 (at node 2487)
Average accepted packet rate = 0.801613
Maximum accepted packet rate = 0.928 (at node 1666)
Minimum injected flit rate = 0.686 (at node 3295)
Average injected flit rate = 0.896831
Maximum injected flit rate = 0.946 (at node 1975)
Minimum accepted flit rate = 0.654 (at node 2487)
Average accepted flit rate = 0.801613
Maximum accepted flit rate = 0.928 (at node 1666)
Average injected packet length = 1
Average accepted packet length = 1
Total in-flight flits = 370388 (0 measured)
latency change    = 1
throughput change = 1
0
Class 0:
Minimum packet latency = 5
Average packet latency = 54.5977
Maximum packet latency = 525
Minimum network latency = 5
Average network latency = 52.1177
Maximum network latency = 525
Slowest packet = 3250572
Minimum flit latency = 5
Average flit latency = 52.1177
Maximum flit latency = 525
Slowest flit = 3250572
Minimum fragmentation = 0
Average fragmentation = 0
Maximum fragmentation = 0
Minimum injected packet rate = 0.55 (at node 4939)
Average injected packet rate = 0.885259
Maximum injected packet rate = 0.933 (at node 1975)
Minimum accepted packet rate = 0.737 (at node 4117)
Average accepted packet rate = 0.831465
Maximum accepted packet rate = 0.926 (at node 2544)
Minimum injected flit rate = 0.55 (at node 4939)
Average injected flit rate = 0.885259
Maximum injected flit rate = 0.933 (at node 1975)
Minimum accepted flit rate = 0.737 (at node 4117)
Average accepted flit rate = 0.831465
Maximum accepted flit rate = 0.926 (at node 2544)
Average injected packet length = 1
Average accepted packet length = 1
Total in-flight flits = 418676 (0 measured)
latency change    = 0.156441
throughput change = 0.0359024
0
Class 0:
Minimum packet latency = 5
Average packet latency = 82.8322
Maximum packet latency = 689
Minimum network latency = 5
Average network latency = 63.6164
Maximum network latency = 494
Slowest packet = 5014795
Minimum flit latency = 5
Average flit latency = 63.6164
Maximum flit latency = 494
Slowest flit = 5722667
Minimum fragmentation = 0
Average fragmentation = 0
Maximum fragmentation = 0
Minimum injected packet rate = 0.278 (at node 4789)
Average injected packet rate = 0.865387
Maximum injected packet rate = 1 (at node 75)
Minimum accepted packet rate = 0.72 (at node 3718)
Average accepted packet rate = 0.860395
Maximum accepted packet rate = 0.994 (at node 2376)
Minimum injected flit rate = 0.278 (at node 4789)
Average injected flit rate = 0.865387
Maximum injected flit rate = 1 (at node 75)
Minimum accepted flit rate = 0.72 (at node 3718)
Average accepted flit rate = 0.860395
Maximum accepted flit rate = 0.994 (at node 2376)
Average injected packet length = 1
Average accepted packet length = 1
Total in-flight flits = 438326 (0 measured)
latency change    = 0.340864
throughput change = 0.0336238
Warmed up ...Time used is 1500 cycles
1
Class 0:
Minimum packet latency = 5
Average packet latency = 101.948
Maximum packet latency = 815
Minimum network latency = 5
Average network latency = 64.6007
Maximum network latency = 440
Slowest packet = 10255361
Minimum flit latency = 5
Average flit latency = 67.0421
Maximum flit latency = 485
Slowest flit = 9976847
Minimum fragmentation = 0
Average fragmentation = 0
Maximum fragmentation = 0
Minimum injected packet rate = 0.318 (at node 679)
Average injected packet rate = 0.86651
Maximum injected packet rate = 1 (at node 249)
Minimum accepted packet rate = 0.712 (at node 3229)
Average accepted packet rate = 0.861301
Maximum accepted packet rate = 1 (at node 526)
Minimum injected flit rate = 0.318 (at node 679)
Average injected flit rate = 0.86651
Maximum injected flit rate = 1 (at node 249)
Minimum accepted flit rate = 0.712 (at node 3229)
Average accepted flit rate = 0.861301
Maximum accepted flit rate = 1 (at node 526)
Average injected packet length = 1
Average accepted packet length = 1
Total in-flight flits = 458571 (458571 measured)
latency change    = 0.187509
throughput change = 0.00105174
1
Class 0:
Minimum packet latency = 5
Average packet latency = 114.024
Maximum packet latency = 947
Minimum network latency = 5
Average network latency = 66.9675
Maximum network latency = 487
Slowest packet = 10255361
Minimum flit latency = 5
Average flit latency = 68.0318
Maximum flit latency = 487
Slowest flit = 13311406
Minimum fragmentation = 0
Average fragmentation = 0
Maximum fragmentation = 0
Minimum injected packet rate = 0.456 (at node 4366)
Average injected packet rate = 0.866492
Maximum injected packet rate = 1 (at node 424)
Minimum accepted packet rate = 0.766 (at node 1883)
Average accepted packet rate = 0.86247
Maximum accepted packet rate = 0.956 (at node 6531)
Minimum injected flit rate = 0.456 (at node 4366)
Average injected flit rate = 0.866492
Maximum injected flit rate = 1 (at node 424)
Minimum accepted flit rate = 0.766 (at node 1883)
Average accepted flit rate = 0.86247
Maximum accepted flit rate = 0.956 (at node 6531)
Average injected packet length = 1
Average accepted packet length = 1
Total in-flight flits = 469763 (469763 measured)
latency change    = 0.105906
throughput change = 0.00135524
1
Class 0:
Minimum packet latency = 5
Average packet latency = 124.572
Maximum packet latency = 1159
Minimum network latency = 5
Average network latency = 68.2723
Maximum network latency = 812
Slowest packet = 10255361
Minimum flit latency = 5
Average flit latency = 68.9264
Maximum flit latency = 812
Slowest flit = 13633907
Minimum fragmentation = 0
Average fragmentation = 0
Maximum fragmentation = 0
Minimum injected packet rate = 0.485333 (at node 2878)
Average injected packet rate = 0.864159
Maximum injected packet rate = 1 (at node 3950)
Minimum accepted packet rate = 0.773333 (at node 1313)
Average accepted packet rate = 0.860658
Maximum accepted packet rate = 0.943333 (at node 7643)
Minimum injected flit rate = 0.485333 (at node 2878)
Average injected flit rate = 0.864159
Maximum injected flit rate = 1 (at node 3950)
Minimum accepted flit rate = 0.773333 (at node 1313)
Average accepted flit rate = 0.860658
Maximum accepted flit rate = 0.943333 (at node 7643)
Average injected packet length = 1
Average accepted packet length = 1
Total in-flight flits = 479270 (479270 measured)
latency change    = 0.0846746
throughput change = 0.0021044
1
Class 0:
Minimum packet latency = 5
Average packet latency = 135.47
Maximum packet latency = 1214
Minimum network latency = 5
Average network latency = 69.2239
Maximum network latency = 812
Slowest packet = 10255361
Minimum flit latency = 5
Average flit latency = 69.6831
Maximum flit latency = 812
Slowest flit = 13633907
Minimum fragmentation = 0
Average fragmentation = 0
Maximum fragmentation = 0
Minimum injected packet rate = 0.5225 (at node 2875)
Average injected packet rate = 0.864159
Maximum injected packet rate = 1 (at node 6408)
Minimum accepted packet rate = 0.779 (at node 4711)
Average accepted packet rate = 0.861032
Maximum accepted packet rate = 0.929 (at node 2280)
Minimum injected flit rate = 0.5225 (at node 2875)
Average injected flit rate = 0.864159
Maximum injected flit rate = 1 (at node 6408)
Minimum accepted flit rate = 0.779 (at node 4711)
Average accepted flit rate = 0.861032
Maximum accepted flit rate = 0.929 (at node 2280)
Average injected packet length = 1
Average accepted packet length = 1
Total in-flight flits = 487069 (487069 measured)
latency change    = 0.0804431
throughput change = 0.000433757
1
Class 0:
Minimum packet latency = 5
Average packet latency = 146.094
Maximum packet latency = 1242
Minimum network latency = 5
Average network latency = 69.9419
Maximum network latency = 812
Slowest packet = 10255361
Minimum flit latency = 5
Average flit latency = 70.2904
Maximum flit latency = 812
Slowest flit = 13633907
Minimum fragmentation = 0
Average fragmentation = 0
Maximum fragmentation = 0
Minimum injected packet rate = 0.5732 (at node 2875)
Average injected packet rate = 0.863587
Maximum injected packet rate = 1 (at node 6408)
Minimum accepted packet rate = 0.7856 (at node 4711)
Average accepted packet rate = 0.86102
Maximum accepted packet rate = 0.924 (at node 5511)
Minimum injected flit rate = 0.5732 (at node 2875)
Average injected flit rate = 0.863587
Maximum injected flit rate = 1 (at node 6408)
Minimum accepted flit rate = 0.7856 (at node 4711)
Average accepted flit rate = 0.86102
Maximum accepted flit rate = 0.924 (at node 5511)
Average injected packet length = 1
Average accepted packet length = 1
Total in-flight flits = 488399 (488399 measured)
latency change    = 0.07272
throughput change = 1.34871e-05
1
Class 0:
Minimum packet latency = 5
Average packet latency = 156.508
Maximum packet latency = 1383
Minimum network latency = 5
Average network latency = 70.4481
Maximum network latency = 812
Slowest packet = 10255361
Minimum flit latency = 5
Average flit latency = 70.7274
Maximum flit latency = 812
Slowest flit = 13633907
Minimum fragmentation = 0
Average fragmentation = 0
Maximum fragmentation = 0
Minimum injected packet rate = 0.567 (at node 2869)
Average injected packet rate = 0.863791
Maximum injected packet rate = 0.994667 (at node 6408)
Minimum accepted packet rate = 0.795667 (at node 40)
Average accepted packet rate = 0.86141
Maximum accepted packet rate = 0.925667 (at node 7)
Minimum injected flit rate = 0.567 (at node 2869)
Average injected flit rate = 0.863791
Maximum injected flit rate = 0.994667 (at node 6408)
Minimum accepted flit rate = 0.795667 (at node 40)
Average accepted flit rate = 0.86141
Maximum accepted flit rate = 0.925667 (at node 7)
Average injected packet length = 1
Average accepted packet length = 1
Total in-flight flits = 494054 (494054 measured)
latency change    = 0.0665418
throughput change = 0.000452223
1
Class 0:
Minimum packet latency = 5
Average packet latency = 166.844
Maximum packet latency = 1488
Minimum network latency = 5
Average network latency = 70.9342
Maximum network latency = 812
Slowest packet = 10255361
Minimum flit latency = 5
Average flit latency = 71.1643
Maximum flit latency = 812
Slowest flit = 13633907
Minimum fragmentation = 0
Average fragmentation = 0
Maximum fragmentation = 0
Minimum injected packet rate = 0.579714 (at node 2869)
Average injected packet rate = 0.864329
Maximum injected packet rate = 0.980286 (at node 6408)
Minimum accepted packet rate = 0.808571 (at node 2141)
Average accepted packet rate = 0.862024
Maximum accepted packet rate = 0.925714 (at node 7)
Minimum injected flit rate = 0.579714 (at node 2869)
Average injected flit rate = 0.864329
Maximum injected flit rate = 0.980286 (at node 6408)
Minimum accepted flit rate = 0.808571 (at node 2141)
Average accepted flit rate = 0.862024
Maximum accepted flit rate = 0.925714 (at node 7)
Average injected packet length = 1
Average accepted packet length = 1
Total in-flight flits = 501191 (501191 measured)
latency change    = 0.0619458
throughput change = 0.000712925
Draining all recorded packets ...
Class 0:
Remaining flits: 37682475 37891407 37896197 37918344 37931891 37934744 37943474 37958999 37970591 38001571 [...] (499194 flits)
Measured flits: 38028725 38035517 38492374 38492695 38508077 38519877 38555952 38562136 38630306 38674885 [...] (12382 flits)
Class 0:
Remaining flits: 43795809 43802387 43848802 43861977 43881797 43981005 44000990 44014306 44027627 44027628 [...] (504196 flits)
Measured flits: 45002504 45056062 45082710 45089363 45109325 45129204 45135857 45149209 45155873 45162533 [...] (13 flits)
Draining remaining packets ...
Time taken is 7230 cycles
====== Traffic class 0 ======
Overall minimum packet latency = 5 (1 samples)
Overall average packet latency = 190.286 (1 samples)
Overall maximum packet latency = 2071 (1 samples)
Overall minimum network latency = 5 (1 samples)
Overall average network latency = 72.1741 (1 samples)
Overall maximum network latency = 812 (1 samples)
Overall minimum flit latency = 5 (1 samples)
Overall average flit latency = 72.6235 (1 samples)
Overall maximum flit latency = 812 (1 samples)
Overall minimum fragmentation = 0 (1 samples)
Overall average fragmentation = 0 (1 samples)
Overall maximum fragmentation = 0 (1 samples)
Overall minimum injected packet rate = 0.579714 (1 samples)
Overall average injected packet rate = 0.864329 (1 samples)
Overall maximum injected packet rate = 0.980286 (1 samples)
Overall minimum accepted packet rate = 0.808571 (1 samples)
Overall average accepted packet rate = 0.862024 (1 samples)
Overall maximum accepted packet rate = 0.925714 (1 samples)
Overall minimum injected flit rate = 0.579714 (1 samples)
Overall average injected flit rate = 0.864329 (1 samples)
Overall maximum injected flit rate = 0.980286 (1 samples)
Overall minimum accepted flit rate = 0.808571 (1 samples)
Overall average accepted flit rate = 0.862024 (1 samples)
Overall maximum accepted flit rate = 0.925714 (1 samples)
Overall average injected packet size = 1 (1 samples)
Overall average accepted packet size = 1 (1 samples)
Overall average hops = 8.50026 (1 samples)
Total run time 6129.69
