BEGIN Configuration File: ./T5D
injection_rate = 0.6;
traffic = uniform;
routing_function = dim_order;
vc_buf_size = 16;
topology = torus;
use_noc_latency = 0;
hold_switch_for_packet=0;

k = 6;
n = 5;

packet_size  = 1;
num_vcs      = 2;
vc_allocator = separable_input_first; 
sw_allocator = separable_input_first;

alloc_iters   = 1;
sample_period = 500;

wait_for_tail_credit = 0;
use_read_write       = 0;

credit_delay   = 2;
routing_delay  = 0;
vc_alloc_delay = 1;
sw_alloc_delay = 1;
st_final_delay = 1;

input_speedup     = 1;
output_speedup    = 1;
internal_speedup  = 2.0;

warmup_periods = 3;
sim_count      = 1;

priority = none;
injection_rate_uses_flits=1;

END Configuration File: ./T5D
Number of nodes: 7776
Number of routers: 7776
0
Class 0:
Minimum packet latency = 5
Average packet latency = 30.9602
Maximum packet latency = 76
Minimum network latency = 5
Average network latency = 30.9602
Maximum network latency = 76
Slowest packet = 1706525
Minimum flit latency = 5
Average flit latency = 30.9602
Maximum flit latency = 76
Slowest flit = 1706525
Minimum fragmentation = 0
Average fragmentation = 0
Maximum fragmentation = 0
Minimum injected packet rate = 0.526 (at node 6828)
Average injected packet rate = 0.599642
Maximum injected packet rate = 0.678 (at node 4870)
Minimum accepted packet rate = 0.452 (at node 4997)
Average accepted packet rate = 0.562208
Maximum accepted packet rate = 0.682 (at node 6252)
Minimum injected flit rate = 0.526 (at node 6828)
Average injected flit rate = 0.599642
Maximum injected flit rate = 0.678 (at node 4870)
Minimum accepted flit rate = 0.452 (at node 4997)
Average accepted flit rate = 0.562208
Maximum accepted flit rate = 0.682 (at node 6252)
Average injected packet length = 1
Average accepted packet length = 1
Total in-flight flits = 145545 (0 measured)
latency change    = 1
throughput change = 1
0
Class 0:
Minimum packet latency = 5
Average packet latency = 31.067
Maximum packet latency = 77
Minimum network latency = 5
Average network latency = 31.067
Maximum network latency = 77
Slowest packet = 2558397
Minimum flit latency = 5
Average flit latency = 31.067
Maximum flit latency = 77
Slowest flit = 2558397
Minimum fragmentation = 0
Average fragmentation = 0
Maximum fragmentation = 0
Minimum injected packet rate = 0.537 (at node 6156)
Average injected packet rate = 0.599913
Maximum injected packet rate = 0.654 (at node 1480)
Minimum accepted packet rate = 0.483 (at node 5246)
Average accepted packet rate = 0.581164
Maximum accepted packet rate = 0.669 (at node 5720)
Minimum injected flit rate = 0.537 (at node 6156)
Average injected flit rate = 0.599913
Maximum injected flit rate = 0.654 (at node 1480)
Minimum accepted flit rate = 0.483 (at node 5246)
Average accepted flit rate = 0.581164
Maximum accepted flit rate = 0.669 (at node 5720)
Average injected packet length = 1
Average accepted packet length = 1
Total in-flight flits = 145790 (0 measured)
latency change    = 0.003439
throughput change = 0.0326178
0
Class 0:
Minimum packet latency = 5
Average packet latency = 31.1685
Maximum packet latency = 72
Minimum network latency = 5
Average network latency = 31.1685
Maximum network latency = 72
Slowest packet = 5730095
Minimum flit latency = 5
Average flit latency = 31.1685
Maximum flit latency = 72
Slowest flit = 5730095
Minimum fragmentation = 0
Average fragmentation = 0
Maximum fragmentation = 0
Minimum injected packet rate = 0.516 (at node 3231)
Average injected packet rate = 0.59967
Maximum injected packet rate = 0.676 (at node 1461)
Minimum accepted packet rate = 0.464 (at node 1241)
Average accepted packet rate = 0.599744
Maximum accepted packet rate = 0.718 (at node 4027)
Minimum injected flit rate = 0.516 (at node 3231)
Average injected flit rate = 0.59967
Maximum injected flit rate = 0.676 (at node 1461)
Minimum accepted flit rate = 0.464 (at node 1241)
Average accepted flit rate = 0.599744
Maximum accepted flit rate = 0.718 (at node 4027)
Average injected packet length = 1
Average accepted packet length = 1
Total in-flight flits = 145502 (0 measured)
latency change    = 0.00325505
throughput change = 0.0309794
Warmed up ...Time used is 1500 cycles
1
Class 0:
Minimum packet latency = 5
Average packet latency = 31.0404
Maximum packet latency = 80
Minimum network latency = 5
Average network latency = 31.0404
Maximum network latency = 80
Slowest packet = 8749639
Minimum flit latency = 5
Average flit latency = 31.1742
Maximum flit latency = 80
Slowest flit = 8749639
Minimum fragmentation = 0
Average fragmentation = 0
Maximum fragmentation = 0
Minimum injected packet rate = 0.518 (at node 6974)
Average injected packet rate = 0.599853
Maximum injected packet rate = 0.672 (at node 4885)
Minimum accepted packet rate = 0.482 (at node 5092)
Average accepted packet rate = 0.599875
Maximum accepted packet rate = 0.742 (at node 6591)
Minimum injected flit rate = 0.518 (at node 6974)
Average injected flit rate = 0.599853
Maximum injected flit rate = 0.672 (at node 4885)
Minimum accepted flit rate = 0.482 (at node 5092)
Average accepted flit rate = 0.599875
Maximum accepted flit rate = 0.742 (at node 6591)
Average injected packet length = 1
Average accepted packet length = 1
Total in-flight flits = 145417 (145417 measured)
latency change    = 0.0041276
throughput change = 0.000218238
1
Class 0:
Minimum packet latency = 5
Average packet latency = 31.1112
Maximum packet latency = 80
Minimum network latency = 5
Average network latency = 31.1112
Maximum network latency = 80
Slowest packet = 8749639
Minimum flit latency = 5
Average flit latency = 31.1759
Maximum flit latency = 80
Slowest flit = 8749639
Minimum fragmentation = 0
Average fragmentation = 0
Maximum fragmentation = 0
Minimum injected packet rate = 0.547 (at node 193)
Average injected packet rate = 0.600084
Maximum injected packet rate = 0.658 (at node 4885)
Minimum accepted packet rate = 0.52 (at node 7126)
Average accepted packet rate = 0.600087
Maximum accepted packet rate = 0.693 (at node 3986)
Minimum injected flit rate = 0.547 (at node 193)
Average injected flit rate = 0.600084
Maximum injected flit rate = 0.658 (at node 4885)
Minimum accepted flit rate = 0.52 (at node 7126)
Average accepted flit rate = 0.600087
Maximum accepted flit rate = 0.693 (at node 3986)
Average injected packet length = 1
Average accepted packet length = 1
Total in-flight flits = 145477 (145477 measured)
latency change    = 0.00227561
throughput change = 0.000353387
1
Class 0:
Minimum packet latency = 5
Average packet latency = 31.1361
Maximum packet latency = 80
Minimum network latency = 5
Average network latency = 31.1361
Maximum network latency = 80
Slowest packet = 8749639
Minimum flit latency = 5
Average flit latency = 31.1787
Maximum flit latency = 80
Slowest flit = 8749639
Minimum fragmentation = 0
Average fragmentation = 0
Maximum fragmentation = 0
Minimum injected packet rate = 0.541333 (at node 5135)
Average injected packet rate = 0.600128
Maximum injected packet rate = 0.647333 (at node 4885)
Minimum accepted packet rate = 0.532 (at node 1674)
Average accepted packet rate = 0.600103
Maximum accepted packet rate = 0.67 (at node 1729)
Minimum injected flit rate = 0.541333 (at node 5135)
Average injected flit rate = 0.600128
Maximum injected flit rate = 0.647333 (at node 4885)
Minimum accepted flit rate = 0.532 (at node 1674)
Average accepted flit rate = 0.600103
Maximum accepted flit rate = 0.67 (at node 1729)
Average injected packet length = 1
Average accepted packet length = 1
Total in-flight flits = 145793 (145793 measured)
latency change    = 0.000800117
throughput change = 2.62158e-05
Draining all recorded packets ...
Draining remaining packets ...
Time taken is 3121 cycles
====== Traffic class 0 ======
Overall minimum packet latency = 5 (1 samples)
Overall average packet latency = 31.1789 (1 samples)
Overall maximum packet latency = 80 (1 samples)
Overall minimum network latency = 5 (1 samples)
Overall average network latency = 31.1789 (1 samples)
Overall maximum network latency = 80 (1 samples)
Overall minimum flit latency = 5 (1 samples)
Overall average flit latency = 31.21 (1 samples)
Overall maximum flit latency = 80 (1 samples)
Overall minimum fragmentation = 0 (1 samples)
Overall average fragmentation = 0 (1 samples)
Overall maximum fragmentation = 0 (1 samples)
Overall minimum injected packet rate = 0.541333 (1 samples)
Overall average injected packet rate = 0.600128 (1 samples)
Overall maximum injected packet rate = 0.647333 (1 samples)
Overall minimum accepted packet rate = 0.532 (1 samples)
Overall average accepted packet rate = 0.600103 (1 samples)
Overall maximum accepted packet rate = 0.67 (1 samples)
Overall minimum injected flit rate = 0.541333 (1 samples)
Overall average injected flit rate = 0.600128 (1 samples)
Overall maximum injected flit rate = 0.647333 (1 samples)
Overall minimum accepted flit rate = 0.532 (1 samples)
Overall average accepted flit rate = 0.600103 (1 samples)
Overall maximum accepted flit rate = 0.67 (1 samples)
Overall average injected packet size = 1 (1 samples)
Overall average accepted packet size = 1 (1 samples)
Overall average hops = 8.50077 (1 samples)
Total run time 1814.93
