BEGIN Configuration File: ./FT3
injection_rate = 0.4;
traffic = bitcomp;
use_size_power_of_two = yes;
routing_function = anca;
vc_buf_size = 16;
topology = fattree;
use_noc_latency = 0;
hold_switch_for_packet=0;

k = 22;
n = 3;

packet_size  = 1;
num_vcs      = 2;
vc_allocator = separable_input_first; 
sw_allocator = separable_input_first;

alloc_iters   = 1;
sample_period = 500;

wait_for_tail_credit = 0;
use_read_write       = 0;

credit_delay   = 2;
routing_delay  = 0;
vc_alloc_delay = 1;
sw_alloc_delay = 1;
st_final_delay = 1;

input_speedup     = 1;
output_speedup    = 1;
internal_speedup  = 2.0;

warmup_periods = 3;
sim_count      = 1;

priority = none;
injection_rate_uses_flits=1;

END Configuration File: ./FT3
Number of nodes: 10648
Number of routers: 1452
Fat Tree
 k = 22 levels = 3
 each switch - total radix =  44
 # of switches = 1452
 # of channels = 42592
 # of nodes ( size of network ) = 10648


Power of two: 8192
#################################################################################
0
Class 0:
Minimum packet latency = 5
Average packet latency = 18.0895
Maximum packet latency = 34
Minimum network latency = 5
Average network latency = 18.0895
Maximum network latency = 34
Slowest packet = 850524
Minimum flit latency = 5
Average flit latency = 18.0895
Maximum flit latency = 34
Slowest flit = 850524
Minimum fragmentation = 0
Average fragmentation = 0
Maximum fragmentation = 0
Minimum injected packet rate = 0.318 (at node 3086)
Average injected packet rate = 0.39965
Maximum injected packet rate = 0.484 (at node 3798)
Minimum accepted packet rate = 0.302 (at node 5105)
Average accepted packet rate = 0.385114
Maximum accepted packet rate = 0.472 (at node 3994)
Minimum injected flit rate = 0.318 (at node 3086)
Average injected flit rate = 0.39965
Maximum injected flit rate = 0.484 (at node 3798)
Minimum accepted flit rate = 0.302 (at node 5105)
Average accepted flit rate = 0.385114
Maximum accepted flit rate = 0.472 (at node 3994)
Average injected packet length = 1
Average accepted packet length = 1
Total in-flight flits = 59541 (0 measured)
latency change    = 1
throughput change = 1
0
Class 0:
Minimum packet latency = 5
Average packet latency = 18.0993
Maximum packet latency = 34
Minimum network latency = 5
Average network latency = 18.0993
Maximum network latency = 34
Slowest packet = 850524
Minimum flit latency = 5
Average flit latency = 18.0993
Maximum flit latency = 34
Slowest flit = 850524
Minimum fragmentation = 0
Average fragmentation = 0
Maximum fragmentation = 0
Minimum injected packet rate = 0.344 (at node 4658)
Average injected packet rate = 0.399758
Maximum injected packet rate = 0.461 (at node 6617)
Minimum accepted packet rate = 0.337 (at node 4493)
Average accepted packet rate = 0.392575
Maximum accepted packet rate = 0.453 (at node 1574)
Minimum injected flit rate = 0.344 (at node 4658)
Average injected flit rate = 0.399758
Maximum injected flit rate = 0.461 (at node 6617)
Minimum accepted flit rate = 0.337 (at node 4493)
Average accepted flit rate = 0.392575
Maximum accepted flit rate = 0.453 (at node 1574)
Average injected packet length = 1
Average accepted packet length = 1
Total in-flight flits = 58842 (0 measured)
latency change    = 0.000542842
throughput change = 0.0190051
0
Class 0:
Minimum packet latency = 5
Average packet latency = 18.1121
Maximum packet latency = 30
Minimum network latency = 5
Average network latency = 18.1121
Maximum network latency = 30
Slowest packet = 3294565
Minimum flit latency = 5
Average flit latency = 18.1121
Maximum flit latency = 30
Slowest flit = 3294565
Minimum fragmentation = 0
Average fragmentation = 0
Maximum fragmentation = 0
Minimum injected packet rate = 0.31 (at node 7949)
Average injected packet rate = 0.399958
Maximum injected packet rate = 0.484 (at node 2471)
Minimum accepted packet rate = 0.31 (at node 242)
Average accepted packet rate = 0.399823
Maximum accepted packet rate = 0.48 (at node 3980)
Minimum injected flit rate = 0.31 (at node 7949)
Average injected flit rate = 0.399958
Maximum injected flit rate = 0.484 (at node 2471)
Minimum accepted flit rate = 0.31 (at node 242)
Average accepted flit rate = 0.399823
Maximum accepted flit rate = 0.48 (at node 3980)
Average injected packet length = 1
Average accepted packet length = 1
Total in-flight flits = 59396 (0 measured)
latency change    = 0.000705786
throughput change = 0.0181287
Warmed up ...Time used is 1500 cycles
1
Class 0:
Minimum packet latency = 5
Average packet latency = 18.0978
Maximum packet latency = 32
Minimum network latency = 5
Average network latency = 18.0978
Maximum network latency = 32
Slowest packet = 5544780
Minimum flit latency = 5
Average flit latency = 18.1071
Maximum flit latency = 32
Slowest flit = 5544780
Minimum fragmentation = 0
Average fragmentation = 0
Maximum fragmentation = 0
Minimum injected packet rate = 0.318 (at node 119)
Average injected packet rate = 0.399553
Maximum injected packet rate = 0.48 (at node 2650)
Minimum accepted packet rate = 0.318 (at node 6932)
Average accepted packet rate = 0.399607
Maximum accepted packet rate = 0.484 (at node 5541)
Minimum injected flit rate = 0.318 (at node 119)
Average injected flit rate = 0.399553
Maximum injected flit rate = 0.48 (at node 2650)
Minimum accepted flit rate = 0.318 (at node 6932)
Average accepted flit rate = 0.399607
Maximum accepted flit rate = 0.484 (at node 5541)
Average injected packet length = 1
Average accepted packet length = 1
Total in-flight flits = 59175 (59175 measured)
latency change    = 0.000790392
throughput change = 0.00053947
1
Class 0:
Minimum packet latency = 5
Average packet latency = 18.1053
Maximum packet latency = 32
Minimum network latency = 5
Average network latency = 18.1053
Maximum network latency = 32
Slowest packet = 5544780
Minimum flit latency = 5
Average flit latency = 18.1098
Maximum flit latency = 32
Slowest flit = 5544780
Minimum fragmentation = 0
Average fragmentation = 0
Maximum fragmentation = 0
Minimum injected packet rate = 0.347 (at node 770)
Average injected packet rate = 0.399897
Maximum injected packet rate = 0.459 (at node 2470)
Minimum accepted packet rate = 0.347 (at node 5048)
Average accepted packet rate = 0.399911
Maximum accepted packet rate = 0.458 (at node 5721)
Minimum injected flit rate = 0.347 (at node 770)
Average injected flit rate = 0.399897
Maximum injected flit rate = 0.459 (at node 2470)
Minimum accepted flit rate = 0.347 (at node 5048)
Average accepted flit rate = 0.399911
Maximum accepted flit rate = 0.458 (at node 5721)
Average injected packet length = 1
Average accepted packet length = 1
Total in-flight flits = 59275 (59275 measured)
latency change    = 0.000413945
throughput change = 0.000760056
1
Class 0:
Minimum packet latency = 5
Average packet latency = 18.1079
Maximum packet latency = 32
Minimum network latency = 5
Average network latency = 18.1079
Maximum network latency = 32
Slowest packet = 5544780
Minimum flit latency = 5
Average flit latency = 18.1109
Maximum flit latency = 32
Slowest flit = 5544780
Minimum fragmentation = 0
Average fragmentation = 0
Maximum fragmentation = 0
Minimum injected packet rate = 0.352 (at node 204)
Average injected packet rate = 0.399993
Maximum injected packet rate = 0.445333 (at node 1383)
Minimum accepted packet rate = 0.351333 (at node 4263)
Average accepted packet rate = 0.399993
Maximum accepted packet rate = 0.446 (at node 5541)
Minimum injected flit rate = 0.352 (at node 204)
Average injected flit rate = 0.399993
Maximum injected flit rate = 0.445333 (at node 1383)
Minimum accepted flit rate = 0.351333 (at node 4263)
Average accepted flit rate = 0.399993
Maximum accepted flit rate = 0.446 (at node 5541)
Average injected packet length = 1
Average accepted packet length = 1
Total in-flight flits = 59400 (59400 measured)
latency change    = 0.000144185
throughput change = 0.000203454
Draining all recorded packets ...
Draining remaining packets ...
Time taken is 3055 cycles
====== Traffic class 0 ======
Overall minimum packet latency = 5 (1 samples)
Overall average packet latency = 18.111 (1 samples)
Overall maximum packet latency = 32 (1 samples)
Overall minimum network latency = 5 (1 samples)
Overall average network latency = 18.111 (1 samples)
Overall maximum network latency = 32 (1 samples)
Overall minimum flit latency = 5 (1 samples)
Overall average flit latency = 18.1137 (1 samples)
Overall maximum flit latency = 32 (1 samples)
Overall minimum fragmentation = 0 (1 samples)
Overall average fragmentation = 0 (1 samples)
Overall maximum fragmentation = 0 (1 samples)
Overall minimum injected packet rate = 0.352 (1 samples)
Overall average injected packet rate = 0.399993 (1 samples)
Overall maximum injected packet rate = 0.445333 (1 samples)
Overall minimum accepted packet rate = 0.351333 (1 samples)
Overall average accepted packet rate = 0.399993 (1 samples)
Overall maximum accepted packet rate = 0.446 (1 samples)
Overall minimum injected flit rate = 0.352 (1 samples)
Overall average injected flit rate = 0.399993 (1 samples)
Overall maximum injected flit rate = 0.445333 (1 samples)
Overall minimum accepted flit rate = 0.351333 (1 samples)
Overall average accepted flit rate = 0.399993 (1 samples)
Overall maximum accepted flit rate = 0.446 (1 samples)
Overall average injected packet size = 1 (1 samples)
Overall average accepted packet size = 1 (1 samples)
Overall average hops = 4.88853 (1 samples)
Total run time 1600.8
