BEGIN Configuration File: ./FT3
injection_rate = 0.5;
traffic = bitcomp;
use_size_power_of_two = yes;
routing_function = anca;
vc_buf_size = 16;
topology = fattree;
use_noc_latency = 0;
hold_switch_for_packet=0;

k = 22;
n = 3;

packet_size  = 1;
num_vcs      = 2;
vc_allocator = separable_input_first; 
sw_allocator = separable_input_first;

alloc_iters   = 1;
sample_period = 500;

wait_for_tail_credit = 0;
use_read_write       = 0;

credit_delay   = 2;
routing_delay  = 0;
vc_alloc_delay = 1;
sw_alloc_delay = 1;
st_final_delay = 1;

input_speedup     = 1;
output_speedup    = 1;
internal_speedup  = 2.0;

warmup_periods = 3;
sim_count      = 1;

priority = none;
injection_rate_uses_flits=1;

END Configuration File: ./FT3
Number of nodes: 10648
Number of routers: 1452
Fat Tree
 k = 22 levels = 3
 each switch - total radix =  44
 # of switches = 1452
 # of channels = 42592
 # of nodes ( size of network ) = 10648


Power of two: 8192
#################################################################################
0
Class 0:
Minimum packet latency = 5
Average packet latency = 18.8059
Maximum packet latency = 35
Minimum network latency = 5
Average network latency = 18.8059
Maximum network latency = 35
Slowest packet = 170635
Minimum flit latency = 5
Average flit latency = 18.8059
Maximum flit latency = 35
Slowest flit = 170635
Minimum fragmentation = 0
Average fragmentation = 0
Maximum fragmentation = 0
Minimum injected packet rate = 0.416 (at node 124)
Average injected packet rate = 0.499673
Maximum injected packet rate = 0.582 (at node 7316)
Minimum accepted packet rate = 0.394 (at node 8067)
Average accepted packet rate = 0.480801
Maximum accepted packet rate = 0.562 (at node 875)
Minimum injected flit rate = 0.416 (at node 124)
Average injected flit rate = 0.499673
Maximum injected flit rate = 0.582 (at node 7316)
Minimum accepted flit rate = 0.394 (at node 8067)
Average accepted flit rate = 0.480801
Maximum accepted flit rate = 0.562 (at node 875)
Average injected packet length = 1
Average accepted packet length = 1
Total in-flight flits = 77301 (0 measured)
latency change    = 1
throughput change = 1
0
Class 0:
Minimum packet latency = 5
Average packet latency = 18.821
Maximum packet latency = 35
Minimum network latency = 5
Average network latency = 18.821
Maximum network latency = 35
Slowest packet = 170635
Minimum flit latency = 5
Average flit latency = 18.821
Maximum flit latency = 35
Slowest flit = 170635
Minimum fragmentation = 0
Average fragmentation = 0
Maximum fragmentation = 0
Minimum injected packet rate = 0.434 (at node 4299)
Average injected packet rate = 0.49985
Maximum injected packet rate = 0.556 (at node 7316)
Minimum accepted packet rate = 0.429 (at node 3892)
Average accepted packet rate = 0.490502
Maximum accepted packet rate = 0.545 (at node 3552)
Minimum injected flit rate = 0.434 (at node 4299)
Average injected flit rate = 0.49985
Maximum injected flit rate = 0.556 (at node 7316)
Minimum accepted flit rate = 0.429 (at node 3892)
Average accepted flit rate = 0.490502
Maximum accepted flit rate = 0.545 (at node 3552)
Average injected packet length = 1
Average accepted packet length = 1
Total in-flight flits = 76580 (0 measured)
latency change    = 0.000803317
throughput change = 0.0197788
0
Class 0:
Minimum packet latency = 5
Average packet latency = 18.8302
Maximum packet latency = 34
Minimum network latency = 5
Average network latency = 18.8302
Maximum network latency = 34
Slowest packet = 4569534
Minimum flit latency = 5
Average flit latency = 18.8302
Maximum flit latency = 34
Slowest flit = 4569534
Minimum fragmentation = 0
Average fragmentation = 0
Maximum fragmentation = 0
Minimum injected packet rate = 0.406 (at node 3237)
Average injected packet rate = 0.499993
Maximum injected packet rate = 0.576 (at node 5070)
Minimum accepted packet rate = 0.414 (at node 4430)
Average accepted packet rate = 0.499835
Maximum accepted packet rate = 0.572 (at node 2904)
Minimum injected flit rate = 0.406 (at node 3237)
Average injected flit rate = 0.499993
Maximum injected flit rate = 0.576 (at node 5070)
Minimum accepted flit rate = 0.414 (at node 4430)
Average accepted flit rate = 0.499835
Maximum accepted flit rate = 0.572 (at node 2904)
Average injected packet length = 1
Average accepted packet length = 1
Total in-flight flits = 77227 (0 measured)
latency change    = 0.000485965
throughput change = 0.018671
Warmed up ...Time used is 1500 cycles
1
Class 0:
Minimum packet latency = 5
Average packet latency = 18.817
Maximum packet latency = 37
Minimum network latency = 5
Average network latency = 18.817
Maximum network latency = 37
Slowest packet = 6298565
Minimum flit latency = 5
Average flit latency = 18.8301
Maximum flit latency = 37
Slowest flit = 6298565
Minimum fragmentation = 0
Average fragmentation = 0
Maximum fragmentation = 0
Minimum injected packet rate = 0.416 (at node 119)
Average injected packet rate = 0.499688
Maximum injected packet rate = 0.582 (at node 3845)
Minimum accepted packet rate = 0.416 (at node 7396)
Average accepted packet rate = 0.499754
Maximum accepted packet rate = 0.576 (at node 4346)
Minimum injected flit rate = 0.416 (at node 119)
Average injected flit rate = 0.499688
Maximum injected flit rate = 0.582 (at node 3845)
Minimum accepted flit rate = 0.416 (at node 7396)
Average accepted flit rate = 0.499754
Maximum accepted flit rate = 0.576 (at node 4346)
Average injected packet length = 1
Average accepted packet length = 1
Total in-flight flits = 76959 (76959 measured)
latency change    = 0.000702871
throughput change = 0.000162189
1
Class 0:
Minimum packet latency = 5
Average packet latency = 18.8292
Maximum packet latency = 37
Minimum network latency = 5
Average network latency = 18.8292
Maximum network latency = 37
Slowest packet = 6298565
Minimum flit latency = 5
Average flit latency = 18.8356
Maximum flit latency = 37
Slowest flit = 6298565
Minimum fragmentation = 0
Average fragmentation = 0
Maximum fragmentation = 0
Minimum injected packet rate = 0.432 (at node 4383)
Average injected packet rate = 0.499945
Maximum injected packet rate = 0.561 (at node 2470)
Minimum accepted packet rate = 0.436 (at node 3808)
Average accepted packet rate = 0.499971
Maximum accepted packet rate = 0.558 (at node 2770)
Minimum injected flit rate = 0.432 (at node 4383)
Average injected flit rate = 0.499945
Maximum injected flit rate = 0.561 (at node 2470)
Minimum accepted flit rate = 0.436 (at node 3808)
Average accepted flit rate = 0.499971
Maximum accepted flit rate = 0.558 (at node 2770)
Average injected packet length = 1
Average accepted packet length = 1
Total in-flight flits = 77014 (77014 measured)
latency change    = 0.000650669
throughput change = 0.000435572
1
Class 0:
Minimum packet latency = 5
Average packet latency = 18.8336
Maximum packet latency = 37
Minimum network latency = 5
Average network latency = 18.8336
Maximum network latency = 37
Slowest packet = 6298565
Minimum flit latency = 5
Average flit latency = 18.8378
Maximum flit latency = 37
Slowest flit = 6298565
Minimum fragmentation = 0
Average fragmentation = 0
Maximum fragmentation = 0
Minimum injected packet rate = 0.444 (at node 4355)
Average injected packet rate = 0.500058
Maximum injected packet rate = 0.551333 (at node 5611)
Minimum accepted packet rate = 0.445333 (at node 3836)
Average accepted packet rate = 0.500063
Maximum accepted packet rate = 0.554 (at node 2580)
Minimum injected flit rate = 0.444 (at node 4355)
Average injected flit rate = 0.500058
Maximum injected flit rate = 0.551333 (at node 5611)
Minimum accepted flit rate = 0.445333 (at node 3836)
Average accepted flit rate = 0.500063
Maximum accepted flit rate = 0.554 (at node 2580)
Average injected packet length = 1
Average accepted packet length = 1
Total in-flight flits = 77165 (77165 measured)
latency change    = 0.000235188
throughput change = 0.000183408
Draining all recorded packets ...
Draining remaining packets ...
Time taken is 3063 cycles
====== Traffic class 0 ======
Overall minimum packet latency = 5 (1 samples)
Overall average packet latency = 18.838 (1 samples)
Overall maximum packet latency = 37 (1 samples)
Overall minimum network latency = 5 (1 samples)
Overall average network latency = 18.838 (1 samples)
Overall maximum network latency = 37 (1 samples)
Overall minimum flit latency = 5 (1 samples)
Overall average flit latency = 18.8414 (1 samples)
Overall maximum flit latency = 37 (1 samples)
Overall minimum fragmentation = 0 (1 samples)
Overall average fragmentation = 0 (1 samples)
Overall maximum fragmentation = 0 (1 samples)
Overall minimum injected packet rate = 0.444 (1 samples)
Overall average injected packet rate = 0.500058 (1 samples)
Overall maximum injected packet rate = 0.551333 (1 samples)
Overall minimum accepted packet rate = 0.445333 (1 samples)
Overall average accepted packet rate = 0.500063 (1 samples)
Overall maximum accepted packet rate = 0.554 (1 samples)
Overall minimum injected flit rate = 0.444 (1 samples)
Overall average injected flit rate = 0.500058 (1 samples)
Overall maximum injected flit rate = 0.551333 (1 samples)
Overall minimum accepted flit rate = 0.445333 (1 samples)
Overall average accepted flit rate = 0.500063 (1 samples)
Overall maximum accepted flit rate = 0.554 (1 samples)
Overall average injected packet size = 1 (1 samples)
Overall average accepted packet size = 1 (1 samples)
Overall average hops = 4.88849 (1 samples)
Total run time 1944.07
