BEGIN Configuration File: ./FT3
injection_rate = 0.3;
traffic = bitcomp;
use_size_power_of_two = yes;
routing_function = anca;
vc_buf_size = 16;
topology = fattree;
use_noc_latency = 0;
hold_switch_for_packet=0;

k = 22;
n = 3;

packet_size  = 1;
num_vcs      = 2;
vc_allocator = separable_input_first; 
sw_allocator = separable_input_first;

alloc_iters   = 1;
sample_period = 500;

wait_for_tail_credit = 0;
use_read_write       = 0;

credit_delay   = 2;
routing_delay  = 0;
vc_alloc_delay = 1;
sw_alloc_delay = 1;
st_final_delay = 1;

input_speedup     = 1;
output_speedup    = 1;
internal_speedup  = 2.0;

warmup_periods = 3;
sim_count      = 1;

priority = none;
injection_rate_uses_flits=1;

END Configuration File: ./FT3
Number of nodes: 10648
Number of routers: 1452
Fat Tree
 k = 22 levels = 3
 each switch - total radix =  44
 # of switches = 1452
 # of channels = 42592
 # of nodes ( size of network ) = 10648


Power of two: 8192
#################################################################################
0
Class 0:
Minimum packet latency = 5
Average packet latency = 17.5494
Maximum packet latency = 32
Minimum network latency = 5
Average network latency = 17.5494
Maximum network latency = 32
Slowest packet = 792567
Minimum flit latency = 5
Average flit latency = 17.5494
Maximum flit latency = 32
Slowest flit = 792567
Minimum fragmentation = 0
Average fragmentation = 0
Maximum fragmentation = 0
Minimum injected packet rate = 0.228 (at node 7550)
Average injected packet rate = 0.299721
Maximum injected packet rate = 0.376 (at node 4197)
Minimum accepted packet rate = 0.214 (at node 641)
Average accepted packet rate = 0.289121
Maximum accepted packet rate = 0.37 (at node 3994)
Minimum injected flit rate = 0.228 (at node 7550)
Average injected flit rate = 0.299721
Maximum injected flit rate = 0.376 (at node 4197)
Minimum accepted flit rate = 0.214 (at node 641)
Average accepted flit rate = 0.289121
Maximum accepted flit rate = 0.37 (at node 3994)
Average injected packet length = 1
Average accepted packet length = 1
Total in-flight flits = 43420 (0 measured)
latency change    = 1
throughput change = 1
0
Class 0:
Minimum packet latency = 5
Average packet latency = 17.5553
Maximum packet latency = 32
Minimum network latency = 5
Average network latency = 17.5553
Maximum network latency = 32
Slowest packet = 792567
Minimum flit latency = 5
Average flit latency = 17.5553
Maximum flit latency = 32
Slowest flit = 792567
Minimum fragmentation = 0
Average fragmentation = 0
Maximum fragmentation = 0
Minimum injected packet rate = 0.252 (at node 2677)
Average injected packet rate = 0.299846
Maximum injected packet rate = 0.359 (at node 3923)
Minimum accepted packet rate = 0.246 (at node 1863)
Average accepted packet rate = 0.294629
Maximum accepted packet rate = 0.353 (at node 4268)
Minimum injected flit rate = 0.252 (at node 2677)
Average injected flit rate = 0.299846
Maximum injected flit rate = 0.359 (at node 3923)
Minimum accepted flit rate = 0.246 (at node 1863)
Average accepted flit rate = 0.294629
Maximum accepted flit rate = 0.353 (at node 4268)
Average injected packet length = 1
Average accepted packet length = 1
Total in-flight flits = 42743 (0 measured)
latency change    = 0.00033783
throughput change = 0.0186945
0
Class 0:
Minimum packet latency = 5
Average packet latency = 17.5638
Maximum packet latency = 28
Minimum network latency = 5
Average network latency = 17.5638
Maximum network latency = 28
Slowest packet = 2791961
Minimum flit latency = 5
Average flit latency = 17.5638
Maximum flit latency = 28
Slowest flit = 2791961
Minimum fragmentation = 0
Average fragmentation = 0
Maximum fragmentation = 0
Minimum injected packet rate = 0.216 (at node 3962)
Average injected packet rate = 0.300108
Maximum injected packet rate = 0.372 (at node 2154)
Minimum accepted packet rate = 0.218 (at node 4229)
Average accepted packet rate = 0.30001
Maximum accepted packet rate = 0.386 (at node 22)
Minimum injected flit rate = 0.216 (at node 3962)
Average injected flit rate = 0.300108
Maximum injected flit rate = 0.372 (at node 2154)
Minimum accepted flit rate = 0.218 (at node 4229)
Average accepted flit rate = 0.30001
Maximum accepted flit rate = 0.386 (at node 22)
Average injected packet length = 1
Average accepted packet length = 1
Total in-flight flits = 43145 (0 measured)
latency change    = 0.000486511
throughput change = 0.0179384
Warmed up ...Time used is 1500 cycles
1
Class 0:
Minimum packet latency = 5
Average packet latency = 17.5565
Maximum packet latency = 29
Minimum network latency = 5
Average network latency = 17.5565
Maximum network latency = 29
Slowest packet = 4017939
Minimum flit latency = 5
Average flit latency = 17.5635
Maximum flit latency = 29
Slowest flit = 4017939
Minimum fragmentation = 0
Average fragmentation = 0
Maximum fragmentation = 0
Minimum injected packet rate = 0.226 (at node 6621)
Average injected packet rate = 0.299799
Maximum injected packet rate = 0.378 (at node 3013)
Minimum accepted packet rate = 0.228 (at node 5589)
Average accepted packet rate = 0.299848
Maximum accepted packet rate = 0.378 (at node 5178)
Minimum injected flit rate = 0.226 (at node 6621)
Average injected flit rate = 0.299799
Maximum injected flit rate = 0.378 (at node 3013)
Minimum accepted flit rate = 0.228 (at node 5589)
Average accepted flit rate = 0.299848
Maximum accepted flit rate = 0.378 (at node 5178)
Average injected packet length = 1
Average accepted packet length = 1
Total in-flight flits = 42941 (42941 measured)
latency change    = 0.000417951
throughput change = 0.000539824
1
Class 0:
Minimum packet latency = 5
Average packet latency = 17.5588
Maximum packet latency = 29
Minimum network latency = 5
Average network latency = 17.5588
Maximum network latency = 29
Slowest packet = 4017939
Minimum flit latency = 5
Average flit latency = 17.5623
Maximum flit latency = 29
Slowest flit = 4017939
Minimum fragmentation = 0
Average fragmentation = 0
Maximum fragmentation = 0
Minimum injected packet rate = 0.25 (at node 3096)
Average injected packet rate = 0.299984
Maximum injected packet rate = 0.356 (at node 2470)
Minimum accepted packet rate = 0.249 (at node 2566)
Average accepted packet rate = 0.299992
Maximum accepted packet rate = 0.354 (at node 5721)
Minimum injected flit rate = 0.25 (at node 3096)
Average injected flit rate = 0.299984
Maximum injected flit rate = 0.356 (at node 2470)
Minimum accepted flit rate = 0.249 (at node 2566)
Average accepted flit rate = 0.299992
Maximum accepted flit rate = 0.354 (at node 5721)
Average injected packet length = 1
Average accepted packet length = 1
Total in-flight flits = 43079 (43079 measured)
latency change    = 0.000130428
throughput change = 0.000479342
1
Class 0:
Minimum packet latency = 5
Average packet latency = 17.5608
Maximum packet latency = 29
Minimum network latency = 5
Average network latency = 17.5608
Maximum network latency = 29
Slowest packet = 4017939
Minimum flit latency = 5
Average flit latency = 17.5631
Maximum flit latency = 29
Slowest flit = 4017939
Minimum fragmentation = 0
Average fragmentation = 0
Maximum fragmentation = 0
Minimum injected packet rate = 0.255333 (at node 3096)
Average injected packet rate = 0.300054
Maximum injected packet rate = 0.342667 (at node 5611)
Minimum accepted packet rate = 0.255333 (at node 3808)
Average accepted packet rate = 0.300046
Maximum accepted packet rate = 0.344667 (at node 2580)
Minimum injected flit rate = 0.255333 (at node 3096)
Average injected flit rate = 0.300054
Maximum injected flit rate = 0.342667 (at node 5611)
Minimum accepted flit rate = 0.255333 (at node 3808)
Average accepted flit rate = 0.300046
Maximum accepted flit rate = 0.344667 (at node 2580)
Average injected packet length = 1
Average accepted packet length = 1
Total in-flight flits = 43240 (43240 measured)
latency change    = 0.000113398
throughput change = 0.000179551
Draining all recorded packets ...
Draining remaining packets ...
Time taken is 3050 cycles
====== Traffic class 0 ======
Overall minimum packet latency = 5 (1 samples)
Overall average packet latency = 17.5631 (1 samples)
Overall maximum packet latency = 29 (1 samples)
Overall minimum network latency = 5 (1 samples)
Overall average network latency = 17.5631 (1 samples)
Overall maximum network latency = 29 (1 samples)
Overall minimum flit latency = 5 (1 samples)
Overall average flit latency = 17.565 (1 samples)
Overall maximum flit latency = 29 (1 samples)
Overall minimum fragmentation = 0 (1 samples)
Overall average fragmentation = 0 (1 samples)
Overall maximum fragmentation = 0 (1 samples)
Overall minimum injected packet rate = 0.255333 (1 samples)
Overall average injected packet rate = 0.300054 (1 samples)
Overall maximum injected packet rate = 0.342667 (1 samples)
Overall minimum accepted packet rate = 0.255333 (1 samples)
Overall average accepted packet rate = 0.300046 (1 samples)
Overall maximum accepted packet rate = 0.344667 (1 samples)
Overall minimum injected flit rate = 0.255333 (1 samples)
Overall average injected flit rate = 0.300054 (1 samples)
Overall maximum injected flit rate = 0.342667 (1 samples)
Overall minimum accepted flit rate = 0.255333 (1 samples)
Overall average accepted flit rate = 0.300046 (1 samples)
Overall maximum accepted flit rate = 0.344667 (1 samples)
Overall average injected packet size = 1 (1 samples)
Overall average accepted packet size = 1 (1 samples)
Overall average hops = 4.88831 (1 samples)
Total run time 1279.37
