BEGIN Configuration File: ./FT3
injection_rate = 0.7;
traffic = bitcomp;
use_size_power_of_two = yes;
routing_function = anca;
vc_buf_size = 16;
topology = fattree;
use_noc_latency = 0;
hold_switch_for_packet=0;

k = 22;
n = 3;

packet_size  = 1;
num_vcs      = 2;
vc_allocator = separable_input_first; 
sw_allocator = separable_input_first;

alloc_iters   = 1;
sample_period = 500;

wait_for_tail_credit = 0;
use_read_write       = 0;

credit_delay   = 2;
routing_delay  = 0;
vc_alloc_delay = 1;
sw_alloc_delay = 1;
st_final_delay = 1;

input_speedup     = 1;
output_speedup    = 1;
internal_speedup  = 2.0;

warmup_periods = 3;
sim_count      = 1;

priority = none;
injection_rate_uses_flits=1;

END Configuration File: ./FT3
Number of nodes: 10648
Number of routers: 1452
Fat Tree
 k = 22 levels = 3
 each switch - total radix =  44
 # of switches = 1452
 # of channels = 42592
 # of nodes ( size of network ) = 10648


Power of two: 8192
#################################################################################
0
Class 0:
Minimum packet latency = 5
Average packet latency = 21.1374
Maximum packet latency = 47
Minimum network latency = 5
Average network latency = 21.1374
Maximum network latency = 47
Slowest packet = 2268816
Minimum flit latency = 5
Average flit latency = 21.1374
Maximum flit latency = 47
Slowest flit = 2268816
Minimum fragmentation = 0
Average fragmentation = 0
Maximum fragmentation = 0
Minimum injected packet rate = 0.616 (at node 5117)
Average injected packet rate = 0.69983
Maximum injected packet rate = 0.778 (at node 1815)
Minimum accepted packet rate = 0.584 (at node 3074)
Average accepted packet rate = 0.670074
Maximum accepted packet rate = 0.754 (at node 4307)
Minimum injected flit rate = 0.616 (at node 5117)
Average injected flit rate = 0.69983
Maximum injected flit rate = 0.778 (at node 1815)
Minimum accepted flit rate = 0.584 (at node 3074)
Average accepted flit rate = 0.670074
Maximum accepted flit rate = 0.754 (at node 4307)
Average injected packet length = 1
Average accepted packet length = 1
Total in-flight flits = 121877 (0 measured)
latency change    = 1
throughput change = 1
0
Class 0:
Minimum packet latency = 5
Average packet latency = 21.1858
Maximum packet latency = 50
Minimum network latency = 5
Average network latency = 21.1858
Maximum network latency = 50
Slowest packet = 4860503
Minimum flit latency = 5
Average flit latency = 21.1858
Maximum flit latency = 50
Slowest flit = 4860503
Minimum fragmentation = 0
Average fragmentation = 0
Maximum fragmentation = 0
Minimum injected packet rate = 0.644 (at node 6140)
Average injected packet rate = 0.699834
Maximum injected packet rate = 0.749 (at node 6723)
Minimum accepted packet rate = 0.628 (at node 2051)
Average accepted packet rate = 0.685057
Maximum accepted packet rate = 0.735 (at node 4232)
Minimum injected flit rate = 0.644 (at node 6140)
Average injected flit rate = 0.699834
Maximum injected flit rate = 0.749 (at node 6723)
Minimum accepted flit rate = 0.628 (at node 2051)
Average accepted flit rate = 0.685057
Maximum accepted flit rate = 0.735 (at node 4232)
Average injected packet length = 1
Average accepted packet length = 1
Total in-flight flits = 121051 (0 measured)
latency change    = 0.002288
throughput change = 0.0218705
0
Class 0:
Minimum packet latency = 5
Average packet latency = 21.2313
Maximum packet latency = 47
Minimum network latency = 5
Average network latency = 21.2313
Maximum network latency = 47
Slowest packet = 6987789
Minimum flit latency = 5
Average flit latency = 21.2313
Maximum flit latency = 47
Slowest flit = 6987789
Minimum fragmentation = 0
Average fragmentation = 0
Maximum fragmentation = 0
Minimum injected packet rate = 0.632 (at node 2059)
Average injected packet rate = 0.700036
Maximum injected packet rate = 0.768 (at node 1309)
Minimum accepted packet rate = 0.626 (at node 2713)
Average accepted packet rate = 0.699789
Maximum accepted packet rate = 0.77 (at node 1238)
Minimum injected flit rate = 0.632 (at node 2059)
Average injected flit rate = 0.700036
Maximum injected flit rate = 0.768 (at node 1309)
Minimum accepted flit rate = 0.626 (at node 2713)
Average accepted flit rate = 0.699789
Maximum accepted flit rate = 0.77 (at node 1238)
Average injected packet length = 1
Average accepted packet length = 1
Total in-flight flits = 122063 (0 measured)
latency change    = 0.00214252
throughput change = 0.0210518
Warmed up ...Time used is 1500 cycles
1
Class 0:
Minimum packet latency = 5
Average packet latency = 21.194
Maximum packet latency = 46
Minimum network latency = 5
Average network latency = 21.194
Maximum network latency = 46
Slowest packet = 8860395
Minimum flit latency = 5
Average flit latency = 21.2214
Maximum flit latency = 46
Slowest flit = 8860395
Minimum fragmentation = 0
Average fragmentation = 0
Maximum fragmentation = 0
Minimum injected packet rate = 0.626 (at node 3130)
Average injected packet rate = 0.699944
Maximum injected packet rate = 0.768 (at node 1134)
Minimum accepted packet rate = 0.624 (at node 5499)
Average accepted packet rate = 0.700037
Maximum accepted packet rate = 0.768 (at node 1393)
Minimum injected flit rate = 0.626 (at node 3130)
Average injected flit rate = 0.699944
Maximum injected flit rate = 0.768 (at node 1134)
Minimum accepted flit rate = 0.624 (at node 5499)
Average accepted flit rate = 0.700037
Maximum accepted flit rate = 0.768 (at node 1393)
Average injected packet length = 1
Average accepted packet length = 1
Total in-flight flits = 121684 (121684 measured)
latency change    = 0.00176223
throughput change = 0.000353985
1
Class 0:
Minimum packet latency = 5
Average packet latency = 21.2087
Maximum packet latency = 46
Minimum network latency = 5
Average network latency = 21.2087
Maximum network latency = 46
Slowest packet = 8860395
Minimum flit latency = 5
Average flit latency = 21.2221
Maximum flit latency = 46
Slowest flit = 8860395
Minimum fragmentation = 0
Average fragmentation = 0
Maximum fragmentation = 0
Minimum injected packet rate = 0.643 (at node 5423)
Average injected packet rate = 0.699994
Maximum injected packet rate = 0.756 (at node 136)
Minimum accepted packet rate = 0.645 (at node 2768)
Average accepted packet rate = 0.700027
Maximum accepted packet rate = 0.755 (at node 8055)
Minimum injected flit rate = 0.643 (at node 5423)
Average injected flit rate = 0.699994
Maximum injected flit rate = 0.756 (at node 136)
Minimum accepted flit rate = 0.645 (at node 2768)
Average accepted flit rate = 0.700027
Maximum accepted flit rate = 0.755 (at node 8055)
Average injected packet length = 1
Average accepted packet length = 1
Total in-flight flits = 121790 (121790 measured)
latency change    = 0.000694673
throughput change = 1.3776e-05
1
Class 0:
Minimum packet latency = 5
Average packet latency = 21.2151
Maximum packet latency = 49
Minimum network latency = 5
Average network latency = 21.2151
Maximum network latency = 49
Slowest packet = 14065726
Minimum flit latency = 5
Average flit latency = 21.2239
Maximum flit latency = 49
Slowest flit = 14065726
Minimum fragmentation = 0
Average fragmentation = 0
Maximum fragmentation = 0
Minimum injected packet rate = 0.654 (at node 5273)
Average injected packet rate = 0.700077
Maximum injected packet rate = 0.747333 (at node 4327)
Minimum accepted packet rate = 0.653333 (at node 2918)
Average accepted packet rate = 0.700081
Maximum accepted packet rate = 0.747333 (at node 3864)
Minimum injected flit rate = 0.654 (at node 5273)
Average injected flit rate = 0.700077
Maximum injected flit rate = 0.747333 (at node 4327)
Minimum accepted flit rate = 0.653333 (at node 2918)
Average accepted flit rate = 0.700081
Maximum accepted flit rate = 0.747333 (at node 3864)
Average injected packet length = 1
Average accepted packet length = 1
Total in-flight flits = 122015 (122015 measured)
latency change    = 0.000301276
throughput change = 7.70117e-05
Draining all recorded packets ...
Draining remaining packets ...
Time taken is 3073 cycles
====== Traffic class 0 ======
Overall minimum packet latency = 5 (1 samples)
Overall average packet latency = 21.2241 (1 samples)
Overall maximum packet latency = 49 (1 samples)
Overall minimum network latency = 5 (1 samples)
Overall average network latency = 21.2241 (1 samples)
Overall maximum network latency = 49 (1 samples)
Overall minimum flit latency = 5 (1 samples)
Overall average flit latency = 21.231 (1 samples)
Overall maximum flit latency = 49 (1 samples)
Overall minimum fragmentation = 0 (1 samples)
Overall average fragmentation = 0 (1 samples)
Overall maximum fragmentation = 0 (1 samples)
Overall minimum injected packet rate = 0.654 (1 samples)
Overall average injected packet rate = 0.700077 (1 samples)
Overall maximum injected packet rate = 0.747333 (1 samples)
Overall minimum accepted packet rate = 0.653333 (1 samples)
Overall average accepted packet rate = 0.700081 (1 samples)
Overall maximum accepted packet rate = 0.747333 (1 samples)
Overall minimum injected flit rate = 0.654 (1 samples)
Overall average injected flit rate = 0.700077 (1 samples)
Overall maximum injected flit rate = 0.747333 (1 samples)
Overall minimum accepted flit rate = 0.653333 (1 samples)
Overall average accepted flit rate = 0.700081 (1 samples)
Overall maximum accepted flit rate = 0.747333 (1 samples)
Overall average injected packet size = 1 (1 samples)
Overall average accepted packet size = 1 (1 samples)
Overall average hops = 4.88857 (1 samples)
Total run time 2640.6
