BEGIN Configuration File: ./FT3
injection_rate = 0.6;
traffic = bitcomp;
use_size_power_of_two = yes;
routing_function = anca;
vc_buf_size = 16;
topology = fattree;
use_noc_latency = 0;
hold_switch_for_packet=0;

k = 22;
n = 3;

packet_size  = 1;
num_vcs      = 2;
vc_allocator = separable_input_first; 
sw_allocator = separable_input_first;

alloc_iters   = 1;
sample_period = 500;

wait_for_tail_credit = 0;
use_read_write       = 0;

credit_delay   = 2;
routing_delay  = 0;
vc_alloc_delay = 1;
sw_alloc_delay = 1;
st_final_delay = 1;

input_speedup     = 1;
output_speedup    = 1;
internal_speedup  = 2.0;

warmup_periods = 3;
sim_count      = 1;

priority = none;
injection_rate_uses_flits=1;

END Configuration File: ./FT3
Number of nodes: 10648
Number of routers: 1452
Fat Tree
 k = 22 levels = 3
 each switch - total radix =  44
 # of switches = 1452
 # of channels = 42592
 # of nodes ( size of network ) = 10648


Power of two: 8192
#################################################################################
0
Class 0:
Minimum packet latency = 5
Average packet latency = 19.7639
Maximum packet latency = 40
Minimum network latency = 5
Average network latency = 19.7639
Maximum network latency = 40
Slowest packet = 1038802
Minimum flit latency = 5
Average flit latency = 19.7639
Maximum flit latency = 40
Slowest flit = 1038802
Minimum fragmentation = 0
Average fragmentation = 0
Maximum fragmentation = 0
Minimum injected packet rate = 0.51 (at node 6260)
Average injected packet rate = 0.599709
Maximum injected packet rate = 0.698 (at node 1815)
Minimum accepted packet rate = 0.488 (at node 1847)
Average accepted packet rate = 0.575908
Maximum accepted packet rate = 0.668 (at node 6376)
Minimum injected flit rate = 0.51 (at node 6260)
Average injected flit rate = 0.599709
Maximum injected flit rate = 0.698 (at node 1815)
Minimum accepted flit rate = 0.488 (at node 1847)
Average accepted flit rate = 0.575908
Maximum accepted flit rate = 0.668 (at node 6376)
Average injected packet length = 1
Average accepted packet length = 1
Total in-flight flits = 97489 (0 measured)
latency change    = 1
throughput change = 1
0
Class 0:
Minimum packet latency = 5
Average packet latency = 19.7887
Maximum packet latency = 42
Minimum network latency = 5
Average network latency = 19.7887
Maximum network latency = 42
Slowest packet = 4287434
Minimum flit latency = 5
Average flit latency = 19.7887
Maximum flit latency = 42
Slowest flit = 4287434
Minimum fragmentation = 0
Average fragmentation = 0
Maximum fragmentation = 0
Minimum injected packet rate = 0.543 (at node 6140)
Average injected packet rate = 0.599816
Maximum injected packet rate = 0.653 (at node 2001)
Minimum accepted packet rate = 0.528 (at node 2051)
Average accepted packet rate = 0.58801
Maximum accepted packet rate = 0.645 (at node 4082)
Minimum injected flit rate = 0.543 (at node 6140)
Average injected flit rate = 0.599816
Maximum injected flit rate = 0.653 (at node 2001)
Minimum accepted flit rate = 0.528 (at node 2051)
Average accepted flit rate = 0.58801
Maximum accepted flit rate = 0.645 (at node 4082)
Average injected packet length = 1
Average accepted packet length = 1
Total in-flight flits = 96718 (0 measured)
latency change    = 0.00125409
throughput change = 0.0205812
0
Class 0:
Minimum packet latency = 5
Average packet latency = 19.8128
Maximum packet latency = 41
Minimum network latency = 5
Average network latency = 19.8128
Maximum network latency = 41
Slowest packet = 6940188
Minimum flit latency = 5
Average flit latency = 19.8128
Maximum flit latency = 41
Slowest flit = 6940188
Minimum fragmentation = 0
Average fragmentation = 0
Maximum fragmentation = 0
Minimum injected packet rate = 0.514 (at node 4374)
Average injected packet rate = 0.599959
Maximum injected packet rate = 0.68 (at node 6945)
Minimum accepted packet rate = 0.52 (at node 3817)
Average accepted packet rate = 0.599733
Maximum accepted packet rate = 0.674 (at node 1246)
Minimum injected flit rate = 0.514 (at node 4374)
Average injected flit rate = 0.599959
Maximum injected flit rate = 0.68 (at node 6945)
Minimum accepted flit rate = 0.52 (at node 3817)
Average accepted flit rate = 0.599733
Maximum accepted flit rate = 0.674 (at node 1246)
Average injected packet length = 1
Average accepted packet length = 1
Total in-flight flits = 97642 (0 measured)
latency change    = 0.00121846
throughput change = 0.0195479
Warmed up ...Time used is 1500 cycles
1
Class 0:
Minimum packet latency = 5
Average packet latency = 19.7975
Maximum packet latency = 42
Minimum network latency = 5
Average network latency = 19.7975
Maximum network latency = 42
Slowest packet = 8725949
Minimum flit latency = 5
Average flit latency = 19.8153
Maximum flit latency = 42
Slowest flit = 8725949
Minimum fragmentation = 0
Average fragmentation = 0
Maximum fragmentation = 0
Minimum injected packet rate = 0.506 (at node 119)
Average injected packet rate = 0.59985
Maximum injected packet rate = 0.69 (at node 6798)
Minimum accepted packet rate = 0.512 (at node 8072)
Average accepted packet rate = 0.599931
Maximum accepted packet rate = 0.684 (at node 1393)
Minimum injected flit rate = 0.506 (at node 119)
Average injected flit rate = 0.59985
Maximum injected flit rate = 0.69 (at node 6798)
Minimum accepted flit rate = 0.512 (at node 8072)
Average accepted flit rate = 0.599931
Maximum accepted flit rate = 0.684 (at node 1393)
Average injected packet length = 1
Average accepted packet length = 1
Total in-flight flits = 97311 (97311 measured)
latency change    = 0.000776829
throughput change = 0.000330035
1
Class 0:
Minimum packet latency = 5
Average packet latency = 19.8096
Maximum packet latency = 42
Minimum network latency = 5
Average network latency = 19.8096
Maximum network latency = 42
Slowest packet = 8725949
Minimum flit latency = 5
Average flit latency = 19.8183
Maximum flit latency = 42
Slowest flit = 8725949
Minimum fragmentation = 0
Average fragmentation = 0
Maximum fragmentation = 0
Minimum injected packet rate = 0.54 (at node 3308)
Average injected packet rate = 0.599988
Maximum injected packet rate = 0.657 (at node 6798)
Minimum accepted packet rate = 0.543 (at node 4883)
Average accepted packet rate = 0.600042
Maximum accepted packet rate = 0.655 (at node 1393)
Minimum injected flit rate = 0.54 (at node 3308)
Average injected flit rate = 0.599988
Maximum injected flit rate = 0.657 (at node 6798)
Minimum accepted flit rate = 0.543 (at node 4883)
Average accepted flit rate = 0.600042
Maximum accepted flit rate = 0.655 (at node 1393)
Average injected packet length = 1
Average accepted packet length = 1
Total in-flight flits = 97195 (97195 measured)
latency change    = 0.000612357
throughput change = 0.000185127
1
Class 0:
Minimum packet latency = 5
Average packet latency = 19.8124
Maximum packet latency = 43
Minimum network latency = 5
Average network latency = 19.8124
Maximum network latency = 43
Slowest packet = 13064572
Minimum flit latency = 5
Average flit latency = 19.8181
Maximum flit latency = 43
Slowest flit = 13064572
Minimum fragmentation = 0
Average fragmentation = 0
Maximum fragmentation = 0
Minimum injected packet rate = 0.546 (at node 4717)
Average injected packet rate = 0.600087
Maximum injected packet rate = 0.651333 (at node 6798)
Minimum accepted packet rate = 0.547333 (at node 3474)
Average accepted packet rate = 0.600104
Maximum accepted packet rate = 0.65 (at node 1393)
Minimum injected flit rate = 0.546 (at node 4717)
Average injected flit rate = 0.600087
Maximum injected flit rate = 0.651333 (at node 6798)
Minimum accepted flit rate = 0.547333 (at node 3474)
Average accepted flit rate = 0.600104
Maximum accepted flit rate = 0.65 (at node 1393)
Average injected packet length = 1
Average accepted packet length = 1
Total in-flight flits = 97439 (97439 measured)
latency change    = 0.000140665
throughput change = 0.000102793
Draining all recorded packets ...
Draining remaining packets ...
Time taken is 3069 cycles
====== Traffic class 0 ======
Overall minimum packet latency = 5 (1 samples)
Overall average packet latency = 19.8181 (1 samples)
Overall maximum packet latency = 43 (1 samples)
Overall minimum network latency = 5 (1 samples)
Overall average network latency = 19.8181 (1 samples)
Overall maximum network latency = 43 (1 samples)
Overall minimum flit latency = 5 (1 samples)
Overall average flit latency = 19.8225 (1 samples)
Overall maximum flit latency = 43 (1 samples)
Overall minimum fragmentation = 0 (1 samples)
Overall average fragmentation = 0 (1 samples)
Overall maximum fragmentation = 0 (1 samples)
Overall minimum injected packet rate = 0.546 (1 samples)
Overall average injected packet rate = 0.600087 (1 samples)
Overall maximum injected packet rate = 0.651333 (1 samples)
Overall minimum accepted packet rate = 0.547333 (1 samples)
Overall average accepted packet rate = 0.600104 (1 samples)
Overall maximum accepted packet rate = 0.65 (1 samples)
Overall minimum injected flit rate = 0.546 (1 samples)
Overall average injected flit rate = 0.600087 (1 samples)
Overall maximum injected flit rate = 0.651333 (1 samples)
Overall minimum accepted flit rate = 0.547333 (1 samples)
Overall average accepted flit rate = 0.600104 (1 samples)
Overall maximum accepted flit rate = 0.65 (1 samples)
Overall average injected packet size = 1 (1 samples)
Overall average accepted packet size = 1 (1 samples)
Overall average hops = 4.8886 (1 samples)
Total run time 2303.16
