BEGIN Configuration File: ./FT3
injection_rate = 0.01;
traffic = bitcomp;
use_size_power_of_two = yes;
routing_function = anca;
vc_buf_size = 16;
topology = fattree;
use_noc_latency = 0;
hold_switch_for_packet=0;

k = 22;
n = 3;

packet_size  = 1;
num_vcs      = 2;
vc_allocator = separable_input_first; 
sw_allocator = separable_input_first;

alloc_iters   = 1;
sample_period = 500;

wait_for_tail_credit = 0;
use_read_write       = 0;

credit_delay   = 2;
routing_delay  = 0;
vc_alloc_delay = 1;
sw_alloc_delay = 1;
st_final_delay = 1;

input_speedup     = 1;
output_speedup    = 1;
internal_speedup  = 2.0;

warmup_periods = 3;
sim_count      = 1;

priority = none;
injection_rate_uses_flits=1;

END Configuration File: ./FT3
Number of nodes: 10648
Number of routers: 1452
Fat Tree
 k = 22 levels = 3
 each switch - total radix =  44
 # of switches = 1452
 # of channels = 42592
 # of nodes ( size of network ) = 10648


Power of two: 8192
#################################################################################
0
Class 0:
Minimum packet latency = 5
Average packet latency = 16.6791
Maximum packet latency = 19
Minimum network latency = 5
Average network latency = 16.6791
Maximum network latency = 19
Slowest packet = 7209
Minimum flit latency = 5
Average flit latency = 16.6791
Maximum flit latency = 19
Slowest flit = 7209
Minimum fragmentation = 0
Average fragmentation = 0
Maximum fragmentation = 0
Minimum injected packet rate = 0 (at node 101)
Average injected packet rate = 0.0100149
Maximum injected packet rate = 0.03 (at node 2725)
Minimum accepted packet rate = 0 (at node 61)
Average accepted packet rate = 0.00966821
Maximum accepted packet rate = 0.03 (at node 5466)
Minimum injected flit rate = 0 (at node 101)
Average injected flit rate = 0.0100149
Maximum injected flit rate = 0.03 (at node 2725)
Minimum accepted flit rate = 0 (at node 61)
Average accepted flit rate = 0.00966821
Maximum accepted flit rate = 0.03 (at node 5466)
Average injected packet length = 1
Average accepted packet length = 1
Total in-flight flits = 1420 (0 measured)
latency change    = 1
throughput change = 1
0
Class 0:
Minimum packet latency = 5
Average packet latency = 16.6811
Maximum packet latency = 19
Minimum network latency = 5
Average network latency = 16.6811
Maximum network latency = 19
Slowest packet = 7209
Minimum flit latency = 5
Average flit latency = 16.6811
Maximum flit latency = 19
Slowest flit = 7209
Minimum fragmentation = 0
Average fragmentation = 0
Maximum fragmentation = 0
Minimum injected packet rate = 0.001 (at node 1916)
Average injected packet rate = 0.0100062
Maximum injected packet rate = 0.024 (at node 3728)
Minimum accepted packet rate = 0.001 (at node 690)
Average accepted packet rate = 0.00984363
Maximum accepted packet rate = 0.024 (at node 4463)
Minimum injected flit rate = 0.001 (at node 1916)
Average injected flit rate = 0.0100062
Maximum injected flit rate = 0.024 (at node 3728)
Minimum accepted flit rate = 0.001 (at node 690)
Average accepted flit rate = 0.00984363
Maximum accepted flit rate = 0.024 (at node 4463)
Average injected packet length = 1
Average accepted packet length = 1
Total in-flight flits = 1332 (0 measured)
latency change    = 0.000119763
throughput change = 0.0178202
0
Class 0:
Minimum packet latency = 5
Average packet latency = 16.6761
Maximum packet latency = 19
Minimum network latency = 5
Average network latency = 16.6761
Maximum network latency = 19
Slowest packet = 87020
Minimum flit latency = 5
Average flit latency = 16.6761
Maximum flit latency = 19
Slowest flit = 87020
Minimum fragmentation = 0
Average fragmentation = 0
Maximum fragmentation = 0
Minimum injected packet rate = 0 (at node 60)
Average injected packet rate = 0.0099707
Maximum injected packet rate = 0.03 (at node 5034)
Minimum accepted packet rate = 0 (at node 344)
Average accepted packet rate = 0.00997412
Maximum accepted packet rate = 0.03 (at node 2844)
Minimum injected flit rate = 0 (at node 60)
Average injected flit rate = 0.0099707
Maximum injected flit rate = 0.03 (at node 5034)
Minimum accepted flit rate = 0 (at node 344)
Average accepted flit rate = 0.00997412
Maximum accepted flit rate = 0.03 (at node 2844)
Average injected packet length = 1
Average accepted packet length = 1
Total in-flight flits = 1318 (0 measured)
latency change    = 0.000301724
throughput change = 0.0130832
Warmed up ...Time used is 1500 cycles
1
Class 0:
Minimum packet latency = 5
Average packet latency = 16.6687
Maximum packet latency = 19
Minimum network latency = 5
Average network latency = 16.6687
Maximum network latency = 19
Slowest packet = 129303
Minimum flit latency = 5
Average flit latency = 16.6737
Maximum flit latency = 19
Slowest flit = 121838
Minimum fragmentation = 0
Average fragmentation = 0
Maximum fragmentation = 0
Minimum injected packet rate = 0 (at node 413)
Average injected packet rate = 0.00998193
Maximum injected packet rate = 0.03 (at node 3623)
Minimum accepted packet rate = 0 (at node 315)
Average accepted packet rate = 0.00998218
Maximum accepted packet rate = 0.03 (at node 4568)
Minimum injected flit rate = 0 (at node 413)
Average injected flit rate = 0.00998193
Maximum injected flit rate = 0.03 (at node 3623)
Minimum accepted flit rate = 0 (at node 315)
Average accepted flit rate = 0.00998218
Maximum accepted flit rate = 0.03 (at node 4568)
Average injected packet length = 1
Average accepted packet length = 1
Total in-flight flits = 1317 (1317 measured)
latency change    = 0.000441539
throughput change = 0.000807103
1
Class 0:
Minimum packet latency = 5
Average packet latency = 16.6671
Maximum packet latency = 20
Minimum network latency = 5
Average network latency = 16.6671
Maximum network latency = 20
Slowest packet = 193169
Minimum flit latency = 5
Average flit latency = 16.6696
Maximum flit latency = 20
Slowest flit = 193169
Minimum fragmentation = 0
Average fragmentation = 0
Maximum fragmentation = 0
Minimum injected packet rate = 0.001 (at node 2560)
Average injected packet rate = 0.0100521
Maximum injected packet rate = 0.023 (at node 1108)
Minimum accepted packet rate = 0.001 (at node 971)
Average accepted packet rate = 0.0100438
Maximum accepted packet rate = 0.023 (at node 3859)
Minimum injected flit rate = 0.001 (at node 2560)
Average injected flit rate = 0.0100521
Maximum injected flit rate = 0.023 (at node 1108)
Minimum accepted flit rate = 0.001 (at node 971)
Average accepted flit rate = 0.0100438
Maximum accepted flit rate = 0.023 (at node 3859)
Average injected packet length = 1
Average accepted packet length = 1
Total in-flight flits = 1386 (1386 measured)
latency change    = 9.86345e-05
throughput change = 0.00613765
1
Class 0:
Minimum packet latency = 5
Average packet latency = 16.673
Maximum packet latency = 20
Minimum network latency = 5
Average network latency = 16.673
Maximum network latency = 20
Slowest packet = 193169
Minimum flit latency = 5
Average flit latency = 16.6746
Maximum flit latency = 20
Slowest flit = 193169
Minimum fragmentation = 0
Average fragmentation = 0
Maximum fragmentation = 0
Minimum injected packet rate = 0.002 (at node 3072)
Average injected packet rate = 0.0100244
Maximum injected packet rate = 0.0213333 (at node 3939)
Minimum accepted packet rate = 0.002 (at node 1071)
Average accepted packet rate = 0.0100167
Maximum accepted packet rate = 0.0213333 (at node 4252)
Minimum injected flit rate = 0.002 (at node 3072)
Average injected flit rate = 0.0100244
Maximum injected flit rate = 0.0213333 (at node 3939)
Minimum accepted flit rate = 0.002 (at node 1071)
Average accepted flit rate = 0.0100167
Maximum accepted flit rate = 0.0213333 (at node 4252)
Average injected packet length = 1
Average accepted packet length = 1
Total in-flight flits = 1413 (1413 measured)
latency change    = 0.000355559
throughput change = 0.00270951
Draining all recorded packets ...
Draining remaining packets ...
Time taken is 3039 cycles
====== Traffic class 0 ======
Overall minimum packet latency = 5 (1 samples)
Overall average packet latency = 16.6743 (1 samples)
Overall maximum packet latency = 20 (1 samples)
Overall minimum network latency = 5 (1 samples)
Overall average network latency = 16.6743 (1 samples)
Overall maximum network latency = 20 (1 samples)
Overall minimum flit latency = 5 (1 samples)
Overall average flit latency = 16.6758 (1 samples)
Overall maximum flit latency = 20 (1 samples)
Overall minimum fragmentation = 0 (1 samples)
Overall average fragmentation = 0 (1 samples)
Overall maximum fragmentation = 0 (1 samples)
Overall minimum injected packet rate = 0.002 (1 samples)
Overall average injected packet rate = 0.0100244 (1 samples)
Overall maximum injected packet rate = 0.0213333 (1 samples)
Overall minimum accepted packet rate = 0.002 (1 samples)
Overall average accepted packet rate = 0.0100167 (1 samples)
Overall maximum accepted packet rate = 0.0213333 (1 samples)
Overall minimum injected flit rate = 0.002 (1 samples)
Overall average injected flit rate = 0.0100244 (1 samples)
Overall maximum injected flit rate = 0.0213333 (1 samples)
Overall minimum accepted flit rate = 0.002 (1 samples)
Overall average accepted flit rate = 0.0100167 (1 samples)
Overall maximum accepted flit rate = 0.0213333 (1 samples)
Overall average injected packet size = 1 (1 samples)
Overall average accepted packet size = 1 (1 samples)
Overall average hops = 4.88721 (1 samples)
Total run time 309.356
