BEGIN Configuration File: ./FT3
injection_rate = 0.2;
traffic = bitcomp;
use_size_power_of_two = yes;
routing_function = anca;
vc_buf_size = 16;
topology = fattree;
use_noc_latency = 0;
hold_switch_for_packet=0;

k = 22;
n = 3;

packet_size  = 1;
num_vcs      = 2;
vc_allocator = separable_input_first; 
sw_allocator = separable_input_first;

alloc_iters   = 1;
sample_period = 500;

wait_for_tail_credit = 0;
use_read_write       = 0;

credit_delay   = 2;
routing_delay  = 0;
vc_alloc_delay = 1;
sw_alloc_delay = 1;
st_final_delay = 1;

input_speedup     = 1;
output_speedup    = 1;
internal_speedup  = 2.0;

warmup_periods = 3;
sim_count      = 1;

priority = none;
injection_rate_uses_flits=1;

END Configuration File: ./FT3
Number of nodes: 10648
Number of routers: 1452
Fat Tree
 k = 22 levels = 3
 each switch - total radix =  44
 # of switches = 1452
 # of channels = 42592
 # of nodes ( size of network ) = 10648


Power of two: 8192
#################################################################################
0
Class 0:
Minimum packet latency = 5
Average packet latency = 17.1448
Maximum packet latency = 27
Minimum network latency = 5
Average network latency = 17.1448
Maximum network latency = 27
Slowest packet = 281785
Minimum flit latency = 5
Average flit latency = 17.1448
Maximum flit latency = 27
Slowest flit = 281785
Minimum fragmentation = 0
Average fragmentation = 0
Maximum fragmentation = 0
Minimum injected packet rate = 0.134 (at node 7550)
Average injected packet rate = 0.199756
Maximum injected packet rate = 0.268 (at node 238)
Minimum accepted packet rate = 0.128 (at node 641)
Average accepted packet rate = 0.192884
Maximum accepted packet rate = 0.262 (at node 3994)
Minimum injected flit rate = 0.134 (at node 7550)
Average injected flit rate = 0.199756
Maximum injected flit rate = 0.268 (at node 238)
Minimum accepted flit rate = 0.128 (at node 641)
Average accepted flit rate = 0.192884
Maximum accepted flit rate = 0.262 (at node 3994)
Average injected packet length = 1
Average accepted packet length = 1
Total in-flight flits = 28147 (0 measured)
latency change    = 1
throughput change = 1
0
Class 0:
Minimum packet latency = 5
Average packet latency = 17.1474
Maximum packet latency = 28
Minimum network latency = 5
Average network latency = 17.1474
Maximum network latency = 28
Slowest packet = 1573323
Minimum flit latency = 5
Average flit latency = 17.1474
Maximum flit latency = 28
Slowest flit = 1573323
Minimum fragmentation = 0
Average fragmentation = 0
Maximum fragmentation = 0
Minimum injected packet rate = 0.155 (at node 6443)
Average injected packet rate = 0.199976
Maximum injected packet rate = 0.251 (at node 1954)
Minimum accepted packet rate = 0.151 (at node 1748)
Average accepted packet rate = 0.196577
Maximum accepted packet rate = 0.247 (at node 6237)
Minimum injected flit rate = 0.155 (at node 6443)
Average injected flit rate = 0.199976
Maximum injected flit rate = 0.251 (at node 1954)
Minimum accepted flit rate = 0.151 (at node 1748)
Average accepted flit rate = 0.196577
Maximum accepted flit rate = 0.247 (at node 6237)
Average injected packet length = 1
Average accepted packet length = 1
Total in-flight flits = 27842 (0 measured)
latency change    = 0.000152771
throughput change = 0.0187865
0
Class 0:
Minimum packet latency = 5
Average packet latency = 17.1523
Maximum packet latency = 26
Minimum network latency = 5
Average network latency = 17.1523
Maximum network latency = 26
Slowest packet = 1597033
Minimum flit latency = 5
Average flit latency = 17.1523
Maximum flit latency = 26
Slowest flit = 1597033
Minimum fragmentation = 0
Average fragmentation = 0
Maximum fragmentation = 0
Minimum injected packet rate = 0.138 (at node 3962)
Average injected packet rate = 0.200138
Maximum injected packet rate = 0.27 (at node 3500)
Minimum accepted packet rate = 0.138 (at node 4229)
Average accepted packet rate = 0.200101
Maximum accepted packet rate = 0.276 (at node 4691)
Minimum injected flit rate = 0.138 (at node 3962)
Average injected flit rate = 0.200138
Maximum injected flit rate = 0.27 (at node 3500)
Minimum accepted flit rate = 0.138 (at node 4229)
Average accepted flit rate = 0.200101
Maximum accepted flit rate = 0.276 (at node 4691)
Average injected packet length = 1
Average accepted packet length = 1
Total in-flight flits = 27994 (0 measured)
latency change    = 0.000286638
throughput change = 0.0176113
Warmed up ...Time used is 1500 cycles
1
Class 0:
Minimum packet latency = 5
Average packet latency = 17.1436
Maximum packet latency = 27
Minimum network latency = 5
Average network latency = 17.1436
Maximum network latency = 27
Slowest packet = 2744207
Minimum flit latency = 5
Average flit latency = 17.1495
Maximum flit latency = 27
Slowest flit = 2744207
Minimum fragmentation = 0
Average fragmentation = 0
Maximum fragmentation = 0
Minimum injected packet rate = 0.13 (at node 4736)
Average injected packet rate = 0.199811
Maximum injected packet rate = 0.28 (at node 2650)
Minimum accepted packet rate = 0.134 (at node 3455)
Average accepted packet rate = 0.199837
Maximum accepted packet rate = 0.276 (at node 5541)
Minimum injected flit rate = 0.13 (at node 4736)
Average injected flit rate = 0.199811
Maximum injected flit rate = 0.28 (at node 2650)
Minimum accepted flit rate = 0.134 (at node 3455)
Average accepted flit rate = 0.199837
Maximum accepted flit rate = 0.276 (at node 5541)
Average injected packet length = 1
Average accepted packet length = 1
Total in-flight flits = 27887 (27887 measured)
latency change    = 0.00050851
throughput change = 0.0013231
1
Class 0:
Minimum packet latency = 5
Average packet latency = 17.148
Maximum packet latency = 27
Minimum network latency = 5
Average network latency = 17.148
Maximum network latency = 27
Slowest packet = 2744207
Minimum flit latency = 5
Average flit latency = 17.1508
Maximum flit latency = 27
Slowest flit = 2744207
Minimum fragmentation = 0
Average fragmentation = 0
Maximum fragmentation = 0
Minimum injected packet rate = 0.15 (at node 3448)
Average injected packet rate = 0.20005
Maximum injected packet rate = 0.251 (at node 6329)
Minimum accepted packet rate = 0.153 (at node 4743)
Average accepted packet rate = 0.20005
Maximum accepted packet rate = 0.248 (at node 1862)
Minimum injected flit rate = 0.15 (at node 3448)
Average injected flit rate = 0.20005
Maximum injected flit rate = 0.251 (at node 6329)
Minimum accepted flit rate = 0.153 (at node 4743)
Average accepted flit rate = 0.20005
Maximum accepted flit rate = 0.248 (at node 1862)
Average injected packet length = 1
Average accepted packet length = 1
Total in-flight flits = 27991 (27991 measured)
latency change    = 0.000256008
throughput change = 0.00106724
1
Class 0:
Minimum packet latency = 5
Average packet latency = 17.1495
Maximum packet latency = 27
Minimum network latency = 5
Average network latency = 17.1495
Maximum network latency = 27
Slowest packet = 2744207
Minimum flit latency = 5
Average flit latency = 17.1514
Maximum flit latency = 27
Slowest flit = 2744207
Minimum fragmentation = 0
Average fragmentation = 0
Maximum fragmentation = 0
Minimum injected packet rate = 0.158 (at node 5314)
Average injected packet rate = 0.200121
Maximum injected packet rate = 0.241333 (at node 5611)
Minimum accepted packet rate = 0.161333 (at node 2877)
Average accepted packet rate = 0.200114
Maximum accepted packet rate = 0.244 (at node 995)
Minimum injected flit rate = 0.158 (at node 5314)
Average injected flit rate = 0.200121
Maximum injected flit rate = 0.241333 (at node 5611)
Minimum accepted flit rate = 0.161333 (at node 2877)
Average accepted flit rate = 0.200114
Maximum accepted flit rate = 0.244 (at node 995)
Average injected packet length = 1
Average accepted packet length = 1
Total in-flight flits = 28084 (28084 measured)
latency change    = 8.65447e-05
throughput change = 0.000318219
Draining all recorded packets ...
Draining remaining packets ...
Time taken is 3047 cycles
====== Traffic class 0 ======
Overall minimum packet latency = 5 (1 samples)
Overall average packet latency = 17.1513 (1 samples)
Overall maximum packet latency = 27 (1 samples)
Overall minimum network latency = 5 (1 samples)
Overall average network latency = 17.1513 (1 samples)
Overall maximum network latency = 27 (1 samples)
Overall minimum flit latency = 5 (1 samples)
Overall average flit latency = 17.153 (1 samples)
Overall maximum flit latency = 27 (1 samples)
Overall minimum fragmentation = 0 (1 samples)
Overall average fragmentation = 0 (1 samples)
Overall maximum fragmentation = 0 (1 samples)
Overall minimum injected packet rate = 0.158 (1 samples)
Overall average injected packet rate = 0.200121 (1 samples)
Overall maximum injected packet rate = 0.241333 (1 samples)
Overall minimum accepted packet rate = 0.161333 (1 samples)
Overall average accepted packet rate = 0.200114 (1 samples)
Overall maximum accepted packet rate = 0.244 (1 samples)
Overall minimum injected flit rate = 0.158 (1 samples)
Overall average injected flit rate = 0.200121 (1 samples)
Overall maximum injected flit rate = 0.241333 (1 samples)
Overall minimum accepted flit rate = 0.161333 (1 samples)
Overall average accepted flit rate = 0.200114 (1 samples)
Overall maximum accepted flit rate = 0.244 (1 samples)
Overall average injected packet size = 1 (1 samples)
Overall average accepted packet size = 1 (1 samples)
Overall average hops = 4.88808 (1 samples)
Total run time 954.532
