BEGIN Configuration File: ./FT3
injection_rate = 0.8;
traffic = bitcomp;
use_size_power_of_two = yes;
routing_function = anca;
vc_buf_size = 16;
topology = fattree;
use_noc_latency = 0;
hold_switch_for_packet=0;

k = 22;
n = 3;

packet_size  = 1;
num_vcs      = 2;
vc_allocator = separable_input_first; 
sw_allocator = separable_input_first;

alloc_iters   = 1;
sample_period = 500;

wait_for_tail_credit = 0;
use_read_write       = 0;

credit_delay   = 2;
routing_delay  = 0;
vc_alloc_delay = 1;
sw_alloc_delay = 1;
st_final_delay = 1;

input_speedup     = 1;
output_speedup    = 1;
internal_speedup  = 2.0;

warmup_periods = 3;
sim_count      = 1;

priority = none;
injection_rate_uses_flits=1;

END Configuration File: ./FT3
Number of nodes: 10648
Number of routers: 1452
Fat Tree
 k = 22 levels = 3
 each switch - total radix =  44
 # of switches = 1452
 # of channels = 42592
 # of nodes ( size of network ) = 10648


Power of two: 8192
#################################################################################
0
Class 0:
Minimum packet latency = 5
Average packet latency = 23.3591
Maximum packet latency = 54
Minimum network latency = 5
Average network latency = 23.3591
Maximum network latency = 54
Slowest packet = 2156315
Minimum flit latency = 5
Average flit latency = 23.3591
Maximum flit latency = 54
Slowest flit = 2156315
Minimum fragmentation = 0
Average fragmentation = 0
Maximum fragmentation = 0
Minimum injected packet rate = 0.728 (at node 5117)
Average injected packet rate = 0.799753
Maximum injected packet rate = 0.868 (at node 7128)
Minimum accepted packet rate = 0.694 (at node 1279)
Average accepted packet rate = 0.762088
Maximum accepted packet rate = 0.832 (at node 4013)
Minimum injected flit rate = 0.728 (at node 5117)
Average injected flit rate = 0.799753
Maximum injected flit rate = 0.868 (at node 7128)
Minimum accepted flit rate = 0.694 (at node 1279)
Average accepted flit rate = 0.762088
Maximum accepted flit rate = 0.832 (at node 4013)
Average injected packet length = 1
Average accepted packet length = 1
Total in-flight flits = 154274 (0 measured)
latency change    = 1
throughput change = 1
0
Class 0:
Minimum packet latency = 5
Average packet latency = 23.4685
Maximum packet latency = 54
Minimum network latency = 5
Average network latency = 23.4685
Maximum network latency = 54
Slowest packet = 2156315
Minimum flit latency = 5
Average flit latency = 23.4685
Maximum flit latency = 54
Slowest flit = 2156315
Minimum fragmentation = 0
Average fragmentation = 0
Maximum fragmentation = 0
Minimum injected packet rate = 0.747 (at node 2823)
Average injected packet rate = 0.799856
Maximum injected packet rate = 0.849 (at node 1229)
Minimum accepted packet rate = 0.73 (at node 5368)
Average accepted packet rate = 0.781075
Maximum accepted packet rate = 0.829 (at node 4000)
Minimum injected flit rate = 0.747 (at node 2823)
Average injected flit rate = 0.799856
Maximum injected flit rate = 0.849 (at node 1229)
Minimum accepted flit rate = 0.73 (at node 5368)
Average accepted flit rate = 0.781075
Maximum accepted flit rate = 0.829 (at node 4000)
Average injected packet length = 1
Average accepted packet length = 1
Total in-flight flits = 153855 (0 measured)
latency change    = 0.00466244
throughput change = 0.0243081
0
Class 0:
Minimum packet latency = 5
Average packet latency = 23.565
Maximum packet latency = 56
Minimum network latency = 5
Average network latency = 23.565
Maximum network latency = 56
Slowest packet = 8658053
Minimum flit latency = 5
Average flit latency = 23.565
Maximum flit latency = 56
Slowest flit = 8658053
Minimum fragmentation = 0
Average fragmentation = 0
Maximum fragmentation = 0
Minimum injected packet rate = 0.73 (at node 7502)
Average injected packet rate = 0.80008
Maximum injected packet rate = 0.862 (at node 1309)
Minimum accepted packet rate = 0.728 (at node 619)
Average accepted packet rate = 0.799881
Maximum accepted packet rate = 0.862 (at node 1238)
Minimum injected flit rate = 0.73 (at node 7502)
Average injected flit rate = 0.80008
Maximum injected flit rate = 0.862 (at node 1309)
Minimum accepted flit rate = 0.728 (at node 619)
Average accepted flit rate = 0.799881
Maximum accepted flit rate = 0.862 (at node 1238)
Average injected packet length = 1
Average accepted packet length = 1
Total in-flight flits = 154670 (0 measured)
latency change    = 0.00409525
throughput change = 0.0235116
Warmed up ...Time used is 1500 cycles
1
Class 0:
Minimum packet latency = 5
Average packet latency = 23.526
Maximum packet latency = 57
Minimum network latency = 5
Average network latency = 23.526
Maximum network latency = 57
Slowest packet = 12186843
Minimum flit latency = 5
Average flit latency = 23.5677
Maximum flit latency = 57
Slowest flit = 12186843
Minimum fragmentation = 0
Average fragmentation = 0
Maximum fragmentation = 0
Minimum injected packet rate = 0.73 (at node 4180)
Average injected packet rate = 0.799792
Maximum injected packet rate = 0.864 (at node 7779)
Minimum accepted packet rate = 0.732 (at node 1181)
Average accepted packet rate = 0.799866
Maximum accepted packet rate = 0.866 (at node 412)
Minimum injected flit rate = 0.73 (at node 4180)
Average injected flit rate = 0.799792
Maximum injected flit rate = 0.864 (at node 7779)
Minimum accepted flit rate = 0.732 (at node 1181)
Average accepted flit rate = 0.799866
Maximum accepted flit rate = 0.866 (at node 412)
Average injected packet length = 1
Average accepted packet length = 1
Total in-flight flits = 154368 (154368 measured)
latency change    = 0.00165925
throughput change = 1.92293e-05
1
Class 0:
Minimum packet latency = 5
Average packet latency = 23.5418
Maximum packet latency = 57
Minimum network latency = 5
Average network latency = 23.5418
Maximum network latency = 57
Slowest packet = 12186843
Minimum flit latency = 5
Average flit latency = 23.5623
Maximum flit latency = 57
Slowest flit = 12186843
Minimum fragmentation = 0
Average fragmentation = 0
Maximum fragmentation = 0
Minimum injected packet rate = 0.752 (at node 6705)
Average injected packet rate = 0.799962
Maximum injected packet rate = 0.851 (at node 136)
Minimum accepted packet rate = 0.755 (at node 3436)
Average accepted packet rate = 0.799992
Maximum accepted packet rate = 0.855 (at node 8055)
Minimum injected flit rate = 0.752 (at node 6705)
Average injected flit rate = 0.799962
Maximum injected flit rate = 0.851 (at node 136)
Minimum accepted flit rate = 0.755 (at node 3436)
Average accepted flit rate = 0.799992
Maximum accepted flit rate = 0.855 (at node 8055)
Average injected packet length = 1
Average accepted packet length = 1
Total in-flight flits = 154428 (154428 measured)
latency change    = 0.000672812
throughput change = 0.00015732
1
Class 0:
Minimum packet latency = 5
Average packet latency = 23.5492
Maximum packet latency = 57
Minimum network latency = 5
Average network latency = 23.5492
Maximum network latency = 57
Slowest packet = 12186843
Minimum flit latency = 5
Average flit latency = 23.5627
Maximum flit latency = 57
Slowest flit = 12186843
Minimum fragmentation = 0
Average fragmentation = 0
Maximum fragmentation = 0
Minimum injected packet rate = 0.757333 (at node 7281)
Average injected packet rate = 0.800022
Maximum injected packet rate = 0.838 (at node 3179)
Minimum accepted packet rate = 0.76 (at node 1486)
Average accepted packet rate = 0.800056
Maximum accepted packet rate = 0.837333 (at node 7015)
Minimum injected flit rate = 0.757333 (at node 7281)
Average injected flit rate = 0.800022
Maximum injected flit rate = 0.838 (at node 3179)
Minimum accepted flit rate = 0.76 (at node 1486)
Average accepted flit rate = 0.800056
Maximum accepted flit rate = 0.837333 (at node 7015)
Average injected packet length = 1
Average accepted packet length = 1
Total in-flight flits = 154254 (154254 measured)
latency change    = 0.00031107
throughput change = 8.01031e-05
Draining all recorded packets ...
Draining remaining packets ...
Time taken is 3087 cycles
====== Traffic class 0 ======
Overall minimum packet latency = 5 (1 samples)
Overall average packet latency = 23.5616 (1 samples)
Overall maximum packet latency = 57 (1 samples)
Overall minimum network latency = 5 (1 samples)
Overall average network latency = 23.5616 (1 samples)
Overall maximum network latency = 57 (1 samples)
Overall minimum flit latency = 5 (1 samples)
Overall average flit latency = 23.5715 (1 samples)
Overall maximum flit latency = 57 (1 samples)
Overall minimum fragmentation = 0 (1 samples)
Overall average fragmentation = 0 (1 samples)
Overall maximum fragmentation = 0 (1 samples)
Overall minimum injected packet rate = 0.757333 (1 samples)
Overall average injected packet rate = 0.800022 (1 samples)
Overall maximum injected packet rate = 0.838 (1 samples)
Overall minimum accepted packet rate = 0.76 (1 samples)
Overall average accepted packet rate = 0.800056 (1 samples)
Overall maximum accepted packet rate = 0.837333 (1 samples)
Overall minimum injected flit rate = 0.757333 (1 samples)
Overall average injected flit rate = 0.800022 (1 samples)
Overall maximum injected flit rate = 0.838 (1 samples)
Overall minimum accepted flit rate = 0.76 (1 samples)
Overall average accepted flit rate = 0.800056 (1 samples)
Overall maximum accepted flit rate = 0.837333 (1 samples)
Overall average injected packet size = 1 (1 samples)
Overall average accepted packet size = 1 (1 samples)
Overall average hops = 4.88861 (1 samples)
Total run time 3067.93
