BEGIN Configuration File: ./FBF-3.conf
injection_rate = 0.4;
traffic = uniform;
routing_function = ran_min;
vc_buf_size = 16;
topology = flatfly;
use_noc_latency = 0;
hold_switch_for_packet=0;

c = 1;
k = 14;
n = 2;

x  = 14;
y  = 14;
xr = 1;
yr = 1;

packet_size  = 1;
num_vcs      = 2;
vc_allocator = separable_input_first; 
sw_allocator = separable_input_first;

alloc_iters   = 1;
sample_period = 500;

wait_for_tail_credit = 0;
use_read_write       = 0;

credit_delay   = 2;
routing_delay  = 0;
vc_alloc_delay = 1;
sw_alloc_delay = 1;
st_final_delay = 1;

input_speedup     = 1;
output_speedup    = 1;
internal_speedup  = 2.0;

warmup_periods = 3;
sim_count      = 1;

priority = none;
injection_rate_uses_flits=1;

END Configuration File: ./FBF-3.conf
Number of nodes: 196
Number of routers: 196
 Flat Bufferfly 
 k = 14 n = 2 c = 1
 each switch - total radix =  27
 # of switches = 196
 # of channels = 5096
 # of nodes ( size of network ) = 196
0
Class 0:
Minimum packet latency = 5
Average packet latency = 10.9021
Maximum packet latency = 17
Minimum network latency = 5
Average network latency = 10.9021
Maximum network latency = 17
Slowest packet = 34924
Minimum flit latency = 5
Average flit latency = 10.9021
Maximum flit latency = 17
Slowest flit = 34924
Minimum fragmentation = 0
Average fragmentation = 0
Maximum fragmentation = 0
Minimum injected packet rate = 0.344 (at node 65)
Average injected packet rate = 0.397939
Maximum injected packet rate = 0.468 (at node 14)
Minimum accepted packet rate = 0.322 (at node 157)
Average accepted packet rate = 0.389061
Maximum accepted packet rate = 0.468 (at node 137)
Minimum injected flit rate = 0.344 (at node 65)
Average injected flit rate = 0.397939
Maximum injected flit rate = 0.468 (at node 14)
Minimum accepted flit rate = 0.322 (at node 157)
Average accepted flit rate = 0.389061
Maximum accepted flit rate = 0.468 (at node 137)
Average injected packet length = 1
Average accepted packet length = 1
Total in-flight flits = 870 (0 measured)
latency change    = 1
throughput change = 1
0
Class 0:
Minimum packet latency = 5
Average packet latency = 10.9008
Maximum packet latency = 17
Minimum network latency = 5
Average network latency = 10.9008
Maximum network latency = 17
Slowest packet = 34924
Minimum flit latency = 5
Average flit latency = 10.9008
Maximum flit latency = 17
Slowest flit = 34924
Minimum fragmentation = 0
Average fragmentation = 0
Maximum fragmentation = 0
Minimum injected packet rate = 0.353 (at node 36)
Average injected packet rate = 0.398755
Maximum injected packet rate = 0.436 (at node 155)
Minimum accepted packet rate = 0.322 (at node 81)
Average accepted packet rate = 0.394617
Maximum accepted packet rate = 0.449 (at node 115)
Minimum injected flit rate = 0.353 (at node 36)
Average injected flit rate = 0.398755
Maximum injected flit rate = 0.436 (at node 155)
Minimum accepted flit rate = 0.322 (at node 81)
Average accepted flit rate = 0.394617
Maximum accepted flit rate = 0.449 (at node 115)
Average injected packet length = 1
Average accepted packet length = 1
Total in-flight flits = 811 (0 measured)
latency change    = 0.000115464
throughput change = 0.0140798
0
Class 0:
Minimum packet latency = 5
Average packet latency = 10.911
Maximum packet latency = 18
Minimum network latency = 5
Average network latency = 10.911
Maximum network latency = 18
Slowest packet = 92618
Minimum flit latency = 5
Average flit latency = 10.911
Maximum flit latency = 18
Slowest flit = 92618
Minimum fragmentation = 0
Average fragmentation = 0
Maximum fragmentation = 0
Minimum injected packet rate = 0.35 (at node 104)
Average injected packet rate = 0.398092
Maximum injected packet rate = 0.49 (at node 123)
Minimum accepted packet rate = 0.328 (at node 10)
Average accepted packet rate = 0.39752
Maximum accepted packet rate = 0.474 (at node 159)
Minimum injected flit rate = 0.35 (at node 104)
Average injected flit rate = 0.398092
Maximum injected flit rate = 0.49 (at node 123)
Minimum accepted flit rate = 0.328 (at node 10)
Average accepted flit rate = 0.39752
Maximum accepted flit rate = 0.474 (at node 159)
Average injected packet length = 1
Average accepted packet length = 1
Total in-flight flits = 867 (0 measured)
latency change    = 0.000936854
throughput change = 0.00730292
Warmed up ...Time used is 1500 cycles
1
Class 0:
Minimum packet latency = 5
Average packet latency = 10.9011
Maximum packet latency = 18
Minimum network latency = 5
Average network latency = 10.9011
Maximum network latency = 18
Slowest packet = 118463
Minimum flit latency = 5
Average flit latency = 10.903
Maximum flit latency = 18
Slowest flit = 118463
Minimum fragmentation = 0
Average fragmentation = 0
Maximum fragmentation = 0
Minimum injected packet rate = 0.316 (at node 78)
Average injected packet rate = 0.4005
Maximum injected packet rate = 0.47 (at node 37)
Minimum accepted packet rate = 0.324 (at node 137)
Average accepted packet rate = 0.400204
Maximum accepted packet rate = 0.478 (at node 98)
Minimum injected flit rate = 0.316 (at node 78)
Average injected flit rate = 0.4005
Maximum injected flit rate = 0.47 (at node 37)
Minimum accepted flit rate = 0.324 (at node 137)
Average accepted flit rate = 0.400204
Maximum accepted flit rate = 0.478 (at node 98)
Average injected packet length = 1
Average accepted packet length = 1
Total in-flight flits = 896 (896 measured)
latency change    = 0.000908266
throughput change = 0.00670576
1
Class 0:
Minimum packet latency = 5
Average packet latency = 10.9097
Maximum packet latency = 18
Minimum network latency = 5
Average network latency = 10.9097
Maximum network latency = 18
Slowest packet = 118463
Minimum flit latency = 5
Average flit latency = 10.9106
Maximum flit latency = 18
Slowest flit = 118463
Minimum fragmentation = 0
Average fragmentation = 0
Maximum fragmentation = 0
Minimum injected packet rate = 0.364 (at node 87)
Average injected packet rate = 0.400628
Maximum injected packet rate = 0.447 (at node 136)
Minimum accepted packet rate = 0.336 (at node 137)
Average accepted packet rate = 0.400653
Maximum accepted packet rate = 0.45 (at node 108)
Minimum injected flit rate = 0.364 (at node 87)
Average injected flit rate = 0.400628
Maximum injected flit rate = 0.447 (at node 136)
Minimum accepted flit rate = 0.336 (at node 137)
Average accepted flit rate = 0.400653
Maximum accepted flit rate = 0.45 (at node 108)
Average injected packet length = 1
Average accepted packet length = 1
Total in-flight flits = 862 (862 measured)
latency change    = 0.000787741
throughput change = 0.00112062
1
Class 0:
Minimum packet latency = 5
Average packet latency = 10.9086
Maximum packet latency = 19
Minimum network latency = 5
Average network latency = 10.9086
Maximum network latency = 19
Slowest packet = 206568
Minimum flit latency = 5
Average flit latency = 10.9092
Maximum flit latency = 19
Slowest flit = 206568
Minimum fragmentation = 0
Average fragmentation = 0
Maximum fragmentation = 0
Minimum injected packet rate = 0.368667 (at node 109)
Average injected packet rate = 0.400728
Maximum injected packet rate = 0.442 (at node 37)
Minimum accepted packet rate = 0.348 (at node 180)
Average accepted packet rate = 0.400755
Maximum accepted packet rate = 0.445333 (at node 108)
Minimum injected flit rate = 0.368667 (at node 109)
Average injected flit rate = 0.400728
Maximum injected flit rate = 0.442 (at node 37)
Minimum accepted flit rate = 0.348 (at node 180)
Average accepted flit rate = 0.400755
Maximum accepted flit rate = 0.445333 (at node 108)
Average injected packet length = 1
Average accepted packet length = 1
Total in-flight flits = 859 (859 measured)
latency change    = 0.000100059
throughput change = 0.000254621
Draining all recorded packets ...
Draining remaining packets ...
Time taken is 3032 cycles
====== Traffic class 0 ======
Overall minimum packet latency = 5 (1 samples)
Overall average packet latency = 10.9094 (1 samples)
Overall maximum packet latency = 19 (1 samples)
Overall minimum network latency = 5 (1 samples)
Overall average network latency = 10.9094 (1 samples)
Overall maximum network latency = 19 (1 samples)
Overall minimum flit latency = 5 (1 samples)
Overall average flit latency = 10.9093 (1 samples)
Overall maximum flit latency = 19 (1 samples)
Overall minimum fragmentation = 0 (1 samples)
Overall average fragmentation = 0 (1 samples)
Overall maximum fragmentation = 0 (1 samples)
Overall minimum injected packet rate = 0.368667 (1 samples)
Overall average injected packet rate = 0.400728 (1 samples)
Overall maximum injected packet rate = 0.442 (1 samples)
Overall minimum accepted packet rate = 0.348 (1 samples)
Overall average accepted packet rate = 0.400755 (1 samples)
Overall maximum accepted packet rate = 0.445333 (1 samples)
Overall minimum injected flit rate = 0.368667 (1 samples)
Overall average injected flit rate = 0.400728 (1 samples)
Overall maximum injected flit rate = 0.442 (1 samples)
Overall minimum accepted flit rate = 0.348 (1 samples)
Overall average accepted flit rate = 0.400755 (1 samples)
Overall maximum accepted flit rate = 0.445333 (1 samples)
Overall average injected packet size = 1 (1 samples)
Overall average accepted packet size = 1 (1 samples)
Overall average hops = 2.85843 (1 samples)
Total run time 19.9371
