BEGIN Configuration File: ./FBF-3.conf
injection_rate = 0.1;
traffic = uniform;
routing_function = ran_min;
vc_buf_size = 16;
topology = flatfly;
use_noc_latency = 0;
hold_switch_for_packet=0;

c = 1;
k = 14;
n = 2;

x  = 14;
y  = 14;
xr = 1;
yr = 1;

packet_size  = 1;
num_vcs      = 2;
vc_allocator = separable_input_first; 
sw_allocator = separable_input_first;

alloc_iters   = 1;
sample_period = 500;

wait_for_tail_credit = 0;
use_read_write       = 0;

credit_delay   = 2;
routing_delay  = 0;
vc_alloc_delay = 1;
sw_alloc_delay = 1;
st_final_delay = 1;

input_speedup     = 1;
output_speedup    = 1;
internal_speedup  = 2.0;

warmup_periods = 3;
sim_count      = 1;

priority = none;
injection_rate_uses_flits=1;

END Configuration File: ./FBF-3.conf
Number of nodes: 196
Number of routers: 196
 Flat Bufferfly 
 k = 14 n = 2 c = 1
 each switch - total radix =  27
 # of switches = 196
 # of channels = 5096
 # of nodes ( size of network ) = 196
0
Class 0:
Minimum packet latency = 5
Average packet latency = 10.6262
Maximum packet latency = 14
Minimum network latency = 5
Average network latency = 10.6262
Maximum network latency = 14
Slowest packet = 8057
Minimum flit latency = 5
Average flit latency = 10.6262
Maximum flit latency = 14
Slowest flit = 8057
Minimum fragmentation = 0
Average fragmentation = 0
Maximum fragmentation = 0
Minimum injected packet rate = 0.064 (at node 128)
Average injected packet rate = 0.0987245
Maximum injected packet rate = 0.144 (at node 127)
Minimum accepted packet rate = 0.056 (at node 135)
Average accepted packet rate = 0.0964082
Maximum accepted packet rate = 0.136 (at node 171)
Minimum injected flit rate = 0.064 (at node 128)
Average injected flit rate = 0.0987245
Maximum injected flit rate = 0.144 (at node 127)
Minimum accepted flit rate = 0.056 (at node 135)
Average accepted flit rate = 0.0964082
Maximum accepted flit rate = 0.136 (at node 171)
Average injected packet length = 1
Average accepted packet length = 1
Total in-flight flits = 227 (0 measured)
latency change    = 1
throughput change = 1
0
Class 0:
Minimum packet latency = 5
Average packet latency = 10.639
Maximum packet latency = 14
Minimum network latency = 5
Average network latency = 10.639
Maximum network latency = 14
Slowest packet = 8057
Minimum flit latency = 5
Average flit latency = 10.639
Maximum flit latency = 14
Slowest flit = 8057
Minimum fragmentation = 0
Average fragmentation = 0
Maximum fragmentation = 0
Minimum injected packet rate = 0.076 (at node 1)
Average injected packet rate = 0.0986888
Maximum injected packet rate = 0.133 (at node 127)
Minimum accepted packet rate = 0.072 (at node 157)
Average accepted packet rate = 0.0976735
Maximum accepted packet rate = 0.128 (at node 115)
Minimum injected flit rate = 0.076 (at node 1)
Average injected flit rate = 0.0986888
Maximum injected flit rate = 0.133 (at node 127)
Minimum accepted flit rate = 0.072 (at node 157)
Average accepted flit rate = 0.0976735
Maximum accepted flit rate = 0.128 (at node 115)
Average injected packet length = 1
Average accepted packet length = 1
Total in-flight flits = 199 (0 measured)
latency change    = 0.0012064
throughput change = 0.0129545
0
Class 0:
Minimum packet latency = 5
Average packet latency = 10.6212
Maximum packet latency = 13
Minimum network latency = 5
Average network latency = 10.6212
Maximum network latency = 13
Slowest packet = 19178
Minimum flit latency = 5
Average flit latency = 10.6212
Maximum flit latency = 13
Slowest flit = 19178
Minimum fragmentation = 0
Average fragmentation = 0
Maximum fragmentation = 0
Minimum injected packet rate = 0.07 (at node 161)
Average injected packet rate = 0.10001
Maximum injected packet rate = 0.146 (at node 82)
Minimum accepted packet rate = 0.064 (at node 9)
Average accepted packet rate = 0.0999796
Maximum accepted packet rate = 0.136 (at node 2)
Minimum injected flit rate = 0.07 (at node 161)
Average injected flit rate = 0.10001
Maximum injected flit rate = 0.146 (at node 82)
Minimum accepted flit rate = 0.064 (at node 9)
Average accepted flit rate = 0.0999796
Maximum accepted flit rate = 0.136 (at node 2)
Average injected packet length = 1
Average accepted packet length = 1
Total in-flight flits = 202 (0 measured)
latency change    = 0.00167117
throughput change = 0.0230659
Warmed up ...Time used is 1500 cycles
1
Class 0:
Minimum packet latency = 5
Average packet latency = 10.6174
Maximum packet latency = 15
Minimum network latency = 5
Average network latency = 10.6174
Maximum network latency = 15
Slowest packet = 37392
Minimum flit latency = 5
Average flit latency = 10.6195
Maximum flit latency = 15
Slowest flit = 37392
Minimum fragmentation = 0
Average fragmentation = 0
Maximum fragmentation = 0
Minimum injected packet rate = 0.068 (at node 46)
Average injected packet rate = 0.1
Maximum injected packet rate = 0.136 (at node 123)
Minimum accepted packet rate = 0.06 (at node 25)
Average accepted packet rate = 0.0996531
Maximum accepted packet rate = 0.14 (at node 149)
Minimum injected flit rate = 0.068 (at node 46)
Average injected flit rate = 0.1
Maximum injected flit rate = 0.136 (at node 123)
Minimum accepted flit rate = 0.06 (at node 25)
Average accepted flit rate = 0.0996531
Maximum accepted flit rate = 0.14 (at node 149)
Average injected packet length = 1
Average accepted packet length = 1
Total in-flight flits = 236 (236 measured)
latency change    = 0.000360704
throughput change = 0.00327667
1
Class 0:
Minimum packet latency = 5
Average packet latency = 10.6178
Maximum packet latency = 15
Minimum network latency = 5
Average network latency = 10.6178
Maximum network latency = 15
Slowest packet = 37392
Minimum flit latency = 5
Average flit latency = 10.6188
Maximum flit latency = 15
Slowest flit = 37392
Minimum fragmentation = 0
Average fragmentation = 0
Maximum fragmentation = 0
Minimum injected packet rate = 0.076 (at node 63)
Average injected packet rate = 0.0990408
Maximum injected packet rate = 0.121 (at node 195)
Minimum accepted packet rate = 0.067 (at node 81)
Average accepted packet rate = 0.0990867
Maximum accepted packet rate = 0.124 (at node 170)
Minimum injected flit rate = 0.076 (at node 63)
Average injected flit rate = 0.0990408
Maximum injected flit rate = 0.121 (at node 195)
Minimum accepted flit rate = 0.067 (at node 81)
Average accepted flit rate = 0.0990867
Maximum accepted flit rate = 0.124 (at node 170)
Average injected packet length = 1
Average accepted packet length = 1
Total in-flight flits = 193 (193 measured)
latency change    = 3.33957e-05
throughput change = 0.00571546
1
Class 0:
Minimum packet latency = 5
Average packet latency = 10.6213
Maximum packet latency = 15
Minimum network latency = 5
Average network latency = 10.6213
Maximum network latency = 15
Slowest packet = 37392
Minimum flit latency = 5
Average flit latency = 10.6219
Maximum flit latency = 15
Slowest flit = 37392
Minimum fragmentation = 0
Average fragmentation = 0
Maximum fragmentation = 0
Minimum injected packet rate = 0.0786667 (at node 63)
Average injected packet rate = 0.0996633
Maximum injected packet rate = 0.116 (at node 195)
Minimum accepted packet rate = 0.0673333 (at node 81)
Average accepted packet rate = 0.0997143
Maximum accepted packet rate = 0.12 (at node 105)
Minimum injected flit rate = 0.0786667 (at node 63)
Average injected flit rate = 0.0996633
Maximum injected flit rate = 0.116 (at node 195)
Minimum accepted flit rate = 0.0673333 (at node 81)
Average accepted flit rate = 0.0997143
Maximum accepted flit rate = 0.12 (at node 105)
Average injected packet length = 1
Average accepted packet length = 1
Total in-flight flits = 187 (187 measured)
latency change    = 0.00033026
throughput change = 0.00629349
Draining all recorded packets ...
Draining remaining packets ...
Time taken is 3027 cycles
====== Traffic class 0 ======
Overall minimum packet latency = 5 (1 samples)
Overall average packet latency = 10.6221 (1 samples)
Overall maximum packet latency = 15 (1 samples)
Overall minimum network latency = 5 (1 samples)
Overall average network latency = 10.6221 (1 samples)
Overall maximum network latency = 15 (1 samples)
Overall minimum flit latency = 5 (1 samples)
Overall average flit latency = 10.6234 (1 samples)
Overall maximum flit latency = 15 (1 samples)
Overall minimum fragmentation = 0 (1 samples)
Overall average fragmentation = 0 (1 samples)
Overall maximum fragmentation = 0 (1 samples)
Overall minimum injected packet rate = 0.0786667 (1 samples)
Overall average injected packet rate = 0.0996633 (1 samples)
Overall maximum injected packet rate = 0.116 (1 samples)
Overall minimum accepted packet rate = 0.0673333 (1 samples)
Overall average accepted packet rate = 0.0997143 (1 samples)
Overall maximum accepted packet rate = 0.12 (1 samples)
Overall minimum injected flit rate = 0.0786667 (1 samples)
Overall average injected flit rate = 0.0996633 (1 samples)
Overall maximum injected flit rate = 0.116 (1 samples)
Overall minimum accepted flit rate = 0.0673333 (1 samples)
Overall average accepted flit rate = 0.0997143 (1 samples)
Overall maximum accepted flit rate = 0.12 (1 samples)
Overall average injected packet size = 1 (1 samples)
Overall average accepted packet size = 1 (1 samples)
Overall average hops = 2.85676 (1 samples)
Total run time 11.9038
