BEGIN Configuration File: ./FBF-3.conf
injection_rate = 0.5;
traffic = uniform;
routing_function = ran_min;
vc_buf_size = 16;
topology = flatfly;
use_noc_latency = 0;
hold_switch_for_packet=0;

c = 1;
k = 14;
n = 2;

x  = 14;
y  = 14;
xr = 1;
yr = 1;

packet_size  = 1;
num_vcs      = 2;
vc_allocator = separable_input_first; 
sw_allocator = separable_input_first;

alloc_iters   = 1;
sample_period = 500;

wait_for_tail_credit = 0;
use_read_write       = 0;

credit_delay   = 2;
routing_delay  = 0;
vc_alloc_delay = 1;
sw_alloc_delay = 1;
st_final_delay = 1;

input_speedup     = 1;
output_speedup    = 1;
internal_speedup  = 2.0;

warmup_periods = 3;
sim_count      = 1;

priority = none;
injection_rate_uses_flits=1;

END Configuration File: ./FBF-3.conf
Number of nodes: 196
Number of routers: 196
 Flat Bufferfly 
 k = 14 n = 2 c = 1
 each switch - total radix =  27
 # of switches = 196
 # of channels = 5096
 # of nodes ( size of network ) = 196
0
Class 0:
Minimum packet latency = 5
Average packet latency = 11.0544
Maximum packet latency = 19
Minimum network latency = 5
Average network latency = 11.0544
Maximum network latency = 19
Slowest packet = 577
Minimum flit latency = 5
Average flit latency = 11.0544
Maximum flit latency = 19
Slowest flit = 577
Minimum fragmentation = 0
Average fragmentation = 0
Maximum fragmentation = 0
Minimum injected packet rate = 0.448 (at node 74)
Average injected packet rate = 0.499082
Maximum injected packet rate = 0.56 (at node 14)
Minimum accepted packet rate = 0.418 (at node 158)
Average accepted packet rate = 0.488092
Maximum accepted packet rate = 0.564 (at node 100)
Minimum injected flit rate = 0.448 (at node 74)
Average injected flit rate = 0.499082
Maximum injected flit rate = 0.56 (at node 14)
Minimum accepted flit rate = 0.418 (at node 158)
Average accepted flit rate = 0.488092
Maximum accepted flit rate = 0.564 (at node 100)
Average injected packet length = 1
Average accepted packet length = 1
Total in-flight flits = 1077 (0 measured)
latency change    = 1
throughput change = 1
0
Class 0:
Minimum packet latency = 5
Average packet latency = 11.0595
Maximum packet latency = 19
Minimum network latency = 5
Average network latency = 11.0595
Maximum network latency = 19
Slowest packet = 577
Minimum flit latency = 5
Average flit latency = 11.0595
Maximum flit latency = 19
Slowest flit = 577
Minimum fragmentation = 0
Average fragmentation = 0
Maximum fragmentation = 0
Minimum injected packet rate = 0.458 (at node 36)
Average injected packet rate = 0.500163
Maximum injected packet rate = 0.538 (at node 107)
Minimum accepted packet rate = 0.423 (at node 81)
Average accepted packet rate = 0.494867
Maximum accepted packet rate = 0.549 (at node 13)
Minimum injected flit rate = 0.458 (at node 36)
Average injected flit rate = 0.500163
Maximum injected flit rate = 0.538 (at node 107)
Minimum accepted flit rate = 0.423 (at node 81)
Average accepted flit rate = 0.494867
Maximum accepted flit rate = 0.549 (at node 13)
Average injected packet length = 1
Average accepted packet length = 1
Total in-flight flits = 1038 (0 measured)
latency change    = 0.000464954
throughput change = 0.0136916
0
Class 0:
Minimum packet latency = 5
Average packet latency = 11.0609
Maximum packet latency = 20
Minimum network latency = 5
Average network latency = 11.0609
Maximum network latency = 20
Slowest packet = 118109
Minimum flit latency = 5
Average flit latency = 11.0609
Maximum flit latency = 20
Slowest flit = 118109
Minimum fragmentation = 0
Average fragmentation = 0
Maximum fragmentation = 0
Minimum injected packet rate = 0.44 (at node 146)
Average injected packet rate = 0.4985
Maximum injected packet rate = 0.58 (at node 123)
Minimum accepted packet rate = 0.412 (at node 74)
Average accepted packet rate = 0.497704
Maximum accepted packet rate = 0.59 (at node 26)
Minimum injected flit rate = 0.44 (at node 146)
Average injected flit rate = 0.4985
Maximum injected flit rate = 0.58 (at node 123)
Minimum accepted flit rate = 0.412 (at node 74)
Average accepted flit rate = 0.497704
Maximum accepted flit rate = 0.59 (at node 26)
Average injected packet length = 1
Average accepted packet length = 1
Total in-flight flits = 1116 (0 measured)
latency change    = 0.000124093
throughput change = 0.00569964
Warmed up ...Time used is 1500 cycles
1
Class 0:
Minimum packet latency = 5
Average packet latency = 11.0628
Maximum packet latency = 19
Minimum network latency = 5
Average network latency = 11.0628
Maximum network latency = 19
Slowest packet = 176355
Minimum flit latency = 5
Average flit latency = 11.0678
Maximum flit latency = 19
Slowest flit = 145573
Minimum fragmentation = 0
Average fragmentation = 0
Maximum fragmentation = 0
Minimum injected packet rate = 0.426 (at node 78)
Average injected packet rate = 0.501704
Maximum injected packet rate = 0.57 (at node 62)
Minimum accepted packet rate = 0.408 (at node 102)
Average accepted packet rate = 0.501602
Maximum accepted packet rate = 0.576 (at node 178)
Minimum injected flit rate = 0.426 (at node 78)
Average injected flit rate = 0.501704
Maximum injected flit rate = 0.57 (at node 62)
Minimum accepted flit rate = 0.408 (at node 102)
Average accepted flit rate = 0.501602
Maximum accepted flit rate = 0.576 (at node 178)
Average injected packet length = 1
Average accepted packet length = 1
Total in-flight flits = 1126 (1126 measured)
latency change    = 0.00017444
throughput change = 0.00777102
1
Class 0:
Minimum packet latency = 5
Average packet latency = 11.0609
Maximum packet latency = 22
Minimum network latency = 5
Average network latency = 11.0609
Maximum network latency = 22
Slowest packet = 220086
Minimum flit latency = 5
Average flit latency = 11.0634
Maximum flit latency = 22
Slowest flit = 220086
Minimum fragmentation = 0
Average fragmentation = 0
Maximum fragmentation = 0
Minimum injected packet rate = 0.452 (at node 87)
Average injected packet rate = 0.50125
Maximum injected packet rate = 0.541 (at node 37)
Minimum accepted packet rate = 0.442 (at node 194)
Average accepted packet rate = 0.501291
Maximum accepted packet rate = 0.575 (at node 86)
Minimum injected flit rate = 0.452 (at node 87)
Average injected flit rate = 0.50125
Maximum injected flit rate = 0.541 (at node 37)
Minimum accepted flit rate = 0.442 (at node 194)
Average accepted flit rate = 0.501291
Maximum accepted flit rate = 0.575 (at node 86)
Average injected packet length = 1
Average accepted packet length = 1
Total in-flight flits = 1108 (1108 measured)
latency change    = 0.000174325
throughput change = 0.000620846
1
Class 0:
Minimum packet latency = 5
Average packet latency = 11.0602
Maximum packet latency = 22
Minimum network latency = 5
Average network latency = 11.0602
Maximum network latency = 22
Slowest packet = 220086
Minimum flit latency = 5
Average flit latency = 11.0619
Maximum flit latency = 22
Slowest flit = 220086
Minimum fragmentation = 0
Average fragmentation = 0
Maximum fragmentation = 0
Minimum injected packet rate = 0.465333 (at node 40)
Average injected packet rate = 0.501133
Maximum injected packet rate = 0.537333 (at node 108)
Minimum accepted packet rate = 0.462 (at node 19)
Average accepted packet rate = 0.501136
Maximum accepted packet rate = 0.554667 (at node 178)
Minimum injected flit rate = 0.465333 (at node 40)
Average injected flit rate = 0.501133
Maximum injected flit rate = 0.537333 (at node 108)
Minimum accepted flit rate = 0.462 (at node 19)
Average accepted flit rate = 0.501136
Maximum accepted flit rate = 0.554667 (at node 178)
Average injected packet length = 1
Average accepted packet length = 1
Total in-flight flits = 1115 (1115 measured)
latency change    = 6.59897e-05
throughput change = 0.000308822
Draining all recorded packets ...
Draining remaining packets ...
Time taken is 3036 cycles
====== Traffic class 0 ======
Overall minimum packet latency = 5 (1 samples)
Overall average packet latency = 11.062 (1 samples)
Overall maximum packet latency = 22 (1 samples)
Overall minimum network latency = 5 (1 samples)
Overall average network latency = 11.062 (1 samples)
Overall maximum network latency = 22 (1 samples)
Overall minimum flit latency = 5 (1 samples)
Overall average flit latency = 11.0641 (1 samples)
Overall maximum flit latency = 22 (1 samples)
Overall minimum fragmentation = 0 (1 samples)
Overall average fragmentation = 0 (1 samples)
Overall maximum fragmentation = 0 (1 samples)
Overall minimum injected packet rate = 0.465333 (1 samples)
Overall average injected packet rate = 0.501133 (1 samples)
Overall maximum injected packet rate = 0.537333 (1 samples)
Overall minimum accepted packet rate = 0.462 (1 samples)
Overall average accepted packet rate = 0.501136 (1 samples)
Overall maximum accepted packet rate = 0.554667 (1 samples)
Overall minimum injected flit rate = 0.465333 (1 samples)
Overall average injected flit rate = 0.501133 (1 samples)
Overall maximum injected flit rate = 0.537333 (1 samples)
Overall minimum accepted flit rate = 0.462 (1 samples)
Overall average accepted flit rate = 0.501136 (1 samples)
Overall maximum accepted flit rate = 0.554667 (1 samples)
Overall average injected packet size = 1 (1 samples)
Overall average accepted packet size = 1 (1 samples)
Overall average hops = 2.85636 (1 samples)
Total run time 24.5041
