BEGIN Configuration File: ./FBF-3.conf
injection_rate = 0.2;
traffic = uniform;
routing_function = ran_min;
vc_buf_size = 16;
topology = flatfly;
use_noc_latency = 0;
hold_switch_for_packet=0;

c = 1;
k = 14;
n = 2;

x  = 14;
y  = 14;
xr = 1;
yr = 1;

packet_size  = 1;
num_vcs      = 2;
vc_allocator = separable_input_first; 
sw_allocator = separable_input_first;

alloc_iters   = 1;
sample_period = 500;

wait_for_tail_credit = 0;
use_read_write       = 0;

credit_delay   = 2;
routing_delay  = 0;
vc_alloc_delay = 1;
sw_alloc_delay = 1;
st_final_delay = 1;

input_speedup     = 1;
output_speedup    = 1;
internal_speedup  = 2.0;

warmup_periods = 3;
sim_count      = 1;

priority = none;
injection_rate_uses_flits=1;

END Configuration File: ./FBF-3.conf
Number of nodes: 196
Number of routers: 196
 Flat Bufferfly 
 k = 14 n = 2 c = 1
 each switch - total radix =  27
 # of switches = 196
 # of channels = 5096
 # of nodes ( size of network ) = 196
0
Class 0:
Minimum packet latency = 5
Average packet latency = 10.6983
Maximum packet latency = 15
Minimum network latency = 5
Average network latency = 10.6983
Maximum network latency = 15
Slowest packet = 8057
Minimum flit latency = 5
Average flit latency = 10.6983
Maximum flit latency = 15
Slowest flit = 8057
Minimum fragmentation = 0
Average fragmentation = 0
Maximum fragmentation = 0
Minimum injected packet rate = 0.156 (at node 68)
Average injected packet rate = 0.198255
Maximum injected packet rate = 0.24 (at node 164)
Minimum accepted packet rate = 0.144 (at node 135)
Average accepted packet rate = 0.19352
Maximum accepted packet rate = 0.256 (at node 115)
Minimum injected flit rate = 0.156 (at node 68)
Average injected flit rate = 0.198255
Maximum injected flit rate = 0.24 (at node 164)
Minimum accepted flit rate = 0.144 (at node 135)
Average accepted flit rate = 0.19352
Maximum accepted flit rate = 0.256 (at node 115)
Average injected packet length = 1
Average accepted packet length = 1
Total in-flight flits = 464 (0 measured)
latency change    = 1
throughput change = 1
0
Class 0:
Minimum packet latency = 5
Average packet latency = 10.6925
Maximum packet latency = 15
Minimum network latency = 5
Average network latency = 10.6925
Maximum network latency = 15
Slowest packet = 8057
Minimum flit latency = 5
Average flit latency = 10.6925
Maximum flit latency = 15
Slowest flit = 8057
Minimum fragmentation = 0
Average fragmentation = 0
Maximum fragmentation = 0
Minimum injected packet rate = 0.171 (at node 1)
Average injected packet rate = 0.198429
Maximum injected packet rate = 0.235 (at node 50)
Minimum accepted packet rate = 0.161 (at node 157)
Average accepted packet rate = 0.196372
Maximum accepted packet rate = 0.235 (at node 137)
Minimum injected flit rate = 0.171 (at node 1)
Average injected flit rate = 0.198429
Maximum injected flit rate = 0.235 (at node 50)
Minimum accepted flit rate = 0.161 (at node 157)
Average accepted flit rate = 0.196372
Maximum accepted flit rate = 0.235 (at node 137)
Average injected packet length = 1
Average accepted packet length = 1
Total in-flight flits = 403 (0 measured)
latency change    = 0.000537832
throughput change = 0.0145236
0
Class 0:
Minimum packet latency = 5
Average packet latency = 10.7042
Maximum packet latency = 16
Minimum network latency = 5
Average network latency = 10.7042
Maximum network latency = 16
Slowest packet = 56054
Minimum flit latency = 5
Average flit latency = 10.7042
Maximum flit latency = 16
Slowest flit = 56054
Minimum fragmentation = 0
Average fragmentation = 0
Maximum fragmentation = 0
Minimum injected packet rate = 0.152 (at node 169)
Average injected packet rate = 0.200276
Maximum injected packet rate = 0.25 (at node 106)
Minimum accepted packet rate = 0.13 (at node 81)
Average accepted packet rate = 0.200173
Maximum accepted packet rate = 0.252 (at node 105)
Minimum injected flit rate = 0.152 (at node 169)
Average injected flit rate = 0.200276
Maximum injected flit rate = 0.25 (at node 106)
Minimum accepted flit rate = 0.13 (at node 81)
Average accepted flit rate = 0.200173
Maximum accepted flit rate = 0.252 (at node 105)
Average injected packet length = 1
Average accepted packet length = 1
Total in-flight flits = 413 (0 measured)
latency change    = 0.00109308
throughput change = 0.0189886
Warmed up ...Time used is 1500 cycles
1
Class 0:
Minimum packet latency = 5
Average packet latency = 10.6967
Maximum packet latency = 15
Minimum network latency = 5
Average network latency = 10.6967
Maximum network latency = 15
Slowest packet = 66553
Minimum flit latency = 5
Average flit latency = 10.6994
Maximum flit latency = 15
Slowest flit = 66553
Minimum fragmentation = 0
Average fragmentation = 0
Maximum fragmentation = 0
Minimum injected packet rate = 0.16 (at node 63)
Average injected packet rate = 0.200408
Maximum injected packet rate = 0.248 (at node 123)
Minimum accepted packet rate = 0.14 (at node 81)
Average accepted packet rate = 0.199888
Maximum accepted packet rate = 0.25 (at node 88)
Minimum injected flit rate = 0.16 (at node 63)
Average injected flit rate = 0.200408
Maximum injected flit rate = 0.248 (at node 123)
Minimum accepted flit rate = 0.14 (at node 81)
Average accepted flit rate = 0.199888
Maximum accepted flit rate = 0.25 (at node 88)
Average injected packet length = 1
Average accepted packet length = 1
Total in-flight flits = 464 (464 measured)
latency change    = 0.000709012
throughput change = 0.00142937
1
Class 0:
Minimum packet latency = 5
Average packet latency = 10.6984
Maximum packet latency = 15
Minimum network latency = 5
Average network latency = 10.6984
Maximum network latency = 15
Slowest packet = 66553
Minimum flit latency = 5
Average flit latency = 10.6998
Maximum flit latency = 15
Slowest flit = 66553
Minimum fragmentation = 0
Average fragmentation = 0
Maximum fragmentation = 0
Minimum injected packet rate = 0.17 (at node 48)
Average injected packet rate = 0.19974
Maximum injected packet rate = 0.238 (at node 136)
Minimum accepted packet rate = 0.164 (at node 108)
Average accepted packet rate = 0.199617
Maximum accepted packet rate = 0.237 (at node 60)
Minimum injected flit rate = 0.17 (at node 48)
Average injected flit rate = 0.19974
Maximum injected flit rate = 0.238 (at node 136)
Minimum accepted flit rate = 0.164 (at node 108)
Average accepted flit rate = 0.199617
Maximum accepted flit rate = 0.237 (at node 60)
Average injected packet length = 1
Average accepted packet length = 1
Total in-flight flits = 437 (437 measured)
latency change    = 0.000167099
throughput change = 0.00135463
1
Class 0:
Minimum packet latency = 5
Average packet latency = 10.6971
Maximum packet latency = 15
Minimum network latency = 5
Average network latency = 10.6971
Maximum network latency = 15
Slowest packet = 66553
Minimum flit latency = 5
Average flit latency = 10.698
Maximum flit latency = 15
Slowest flit = 66553
Minimum fragmentation = 0
Average fragmentation = 0
Maximum fragmentation = 0
Minimum injected packet rate = 0.176 (at node 63)
Average injected packet rate = 0.20031
Maximum injected packet rate = 0.23 (at node 37)
Minimum accepted packet rate = 0.171333 (at node 145)
Average accepted packet rate = 0.200289
Maximum accepted packet rate = 0.237333 (at node 77)
Minimum injected flit rate = 0.176 (at node 63)
Average injected flit rate = 0.20031
Maximum injected flit rate = 0.23 (at node 37)
Minimum accepted flit rate = 0.171333 (at node 145)
Average accepted flit rate = 0.200289
Maximum accepted flit rate = 0.237333 (at node 77)
Average injected packet length = 1
Average accepted packet length = 1
Total in-flight flits = 419 (419 measured)
latency change    = 0.000123376
throughput change = 0.003354
Draining all recorded packets ...
Draining remaining packets ...
Time taken is 3029 cycles
====== Traffic class 0 ======
Overall minimum packet latency = 5 (1 samples)
Overall average packet latency = 10.6985 (1 samples)
Overall maximum packet latency = 15 (1 samples)
Overall minimum network latency = 5 (1 samples)
Overall average network latency = 10.6985 (1 samples)
Overall maximum network latency = 15 (1 samples)
Overall minimum flit latency = 5 (1 samples)
Overall average flit latency = 10.699 (1 samples)
Overall maximum flit latency = 15 (1 samples)
Overall minimum fragmentation = 0 (1 samples)
Overall average fragmentation = 0 (1 samples)
Overall maximum fragmentation = 0 (1 samples)
Overall minimum injected packet rate = 0.176 (1 samples)
Overall average injected packet rate = 0.20031 (1 samples)
Overall maximum injected packet rate = 0.23 (1 samples)
Overall minimum accepted packet rate = 0.171333 (1 samples)
Overall average accepted packet rate = 0.200289 (1 samples)
Overall maximum accepted packet rate = 0.237333 (1 samples)
Overall minimum injected flit rate = 0.176 (1 samples)
Overall average injected flit rate = 0.20031 (1 samples)
Overall maximum injected flit rate = 0.23 (1 samples)
Overall minimum accepted flit rate = 0.171333 (1 samples)
Overall average accepted flit rate = 0.200289 (1 samples)
Overall maximum accepted flit rate = 0.237333 (1 samples)
Overall average injected packet size = 1 (1 samples)
Overall average accepted packet size = 1 (1 samples)
Overall average hops = 2.85738 (1 samples)
Total run time 14.3068
