BEGIN Configuration File: ./FBF-3.conf
injection_rate = 0.01;
traffic = uniform;
routing_function = ran_min;
vc_buf_size = 16;
topology = flatfly;
use_noc_latency = 0;
hold_switch_for_packet=0;

c = 1;
k = 14;
n = 2;

x  = 14;
y  = 14;
xr = 1;
yr = 1;

packet_size  = 1;
num_vcs      = 2;
vc_allocator = separable_input_first; 
sw_allocator = separable_input_first;

alloc_iters   = 1;
sample_period = 500;

wait_for_tail_credit = 0;
use_read_write       = 0;

credit_delay   = 2;
routing_delay  = 0;
vc_alloc_delay = 1;
sw_alloc_delay = 1;
st_final_delay = 1;

input_speedup     = 1;
output_speedup    = 1;
internal_speedup  = 2.0;

warmup_periods = 3;
sim_count      = 1;

priority = none;
injection_rate_uses_flits=1;

END Configuration File: ./FBF-3.conf
Number of nodes: 196
Number of routers: 196
 Flat Bufferfly 
 k = 14 n = 2 c = 1
 each switch - total radix =  27
 # of switches = 196
 # of channels = 5096
 # of nodes ( size of network ) = 196
0
Class 0:
Minimum packet latency = 5
Average packet latency = 10.5546
Maximum packet latency = 12
Minimum network latency = 5
Average network latency = 10.5546
Maximum network latency = 12
Slowest packet = 64
Minimum flit latency = 5
Average flit latency = 10.5546
Maximum flit latency = 12
Slowest flit = 64
Minimum fragmentation = 0
Average fragmentation = 0
Maximum fragmentation = 0
Minimum injected packet rate = 0 (at node 43)
Average injected packet rate = 0.00966327
Maximum injected packet rate = 0.022 (at node 57)
Minimum accepted packet rate = 0.002 (at node 21)
Average accepted packet rate = 0.00934694
Maximum accepted packet rate = 0.028 (at node 128)
Minimum injected flit rate = 0 (at node 43)
Average injected flit rate = 0.00966327
Maximum injected flit rate = 0.022 (at node 57)
Minimum accepted flit rate = 0.002 (at node 21)
Average accepted flit rate = 0.00934694
Maximum accepted flit rate = 0.028 (at node 128)
Average injected packet length = 1
Average accepted packet length = 1
Total in-flight flits = 31 (0 measured)
latency change    = 1
throughput change = 1
0
Class 0:
Minimum packet latency = 5
Average packet latency = 10.5862
Maximum packet latency = 12
Minimum network latency = 5
Average network latency = 10.5862
Maximum network latency = 12
Slowest packet = 64
Minimum flit latency = 5
Average flit latency = 10.5862
Maximum flit latency = 12
Slowest flit = 64
Minimum fragmentation = 0
Average fragmentation = 0
Maximum fragmentation = 0
Minimum injected packet rate = 0.003 (at node 183)
Average injected packet rate = 0.00994898
Maximum injected packet rate = 0.02 (at node 57)
Minimum accepted packet rate = 0.003 (at node 125)
Average accepted packet rate = 0.00985204
Maximum accepted packet rate = 0.02 (at node 87)
Minimum injected flit rate = 0.003 (at node 183)
Average injected flit rate = 0.00994898
Maximum injected flit rate = 0.02 (at node 57)
Minimum accepted flit rate = 0.003 (at node 125)
Average accepted flit rate = 0.00985204
Maximum accepted flit rate = 0.02 (at node 87)
Average injected packet length = 1
Average accepted packet length = 1
Total in-flight flits = 19 (0 measured)
latency change    = 0.00298875
throughput change = 0.0512688
0
Class 0:
Minimum packet latency = 5
Average packet latency = 10.5608
Maximum packet latency = 12
Minimum network latency = 5
Average network latency = 10.5608
Maximum network latency = 12
Slowest packet = 2104
Minimum flit latency = 5
Average flit latency = 10.5608
Maximum flit latency = 12
Slowest flit = 2104
Minimum fragmentation = 0
Average fragmentation = 0
Maximum fragmentation = 0
Minimum injected packet rate = 0 (at node 4)
Average injected packet rate = 0.00986735
Maximum injected packet rate = 0.024 (at node 89)
Minimum accepted packet rate = 0.002 (at node 0)
Average accepted packet rate = 0.00989796
Maximum accepted packet rate = 0.024 (at node 151)
Minimum injected flit rate = 0 (at node 4)
Average injected flit rate = 0.00986735
Maximum injected flit rate = 0.024 (at node 89)
Minimum accepted flit rate = 0.002 (at node 0)
Average accepted flit rate = 0.00989796
Maximum accepted flit rate = 0.024 (at node 151)
Average injected packet length = 1
Average accepted packet length = 1
Total in-flight flits = 16 (0 measured)
latency change    = 0.00240512
throughput change = 0.00463918
Warmed up ...Time used is 1500 cycles
1
Class 0:
Minimum packet latency = 5
Average packet latency = 10.564
Maximum packet latency = 12
Minimum network latency = 5
Average network latency = 10.564
Maximum network latency = 12
Slowest packet = 3080
Minimum flit latency = 5
Average flit latency = 10.5618
Maximum flit latency = 12
Slowest flit = 3080
Minimum fragmentation = 0
Average fragmentation = 0
Maximum fragmentation = 0
Minimum injected packet rate = 0 (at node 13)
Average injected packet rate = 0.00963265
Maximum injected packet rate = 0.02 (at node 2)
Minimum accepted packet rate = 0 (at node 26)
Average accepted packet rate = 0.00957143
Maximum accepted packet rate = 0.022 (at node 56)
Minimum injected flit rate = 0 (at node 13)
Average injected flit rate = 0.00963265
Maximum injected flit rate = 0.02 (at node 2)
Minimum accepted flit rate = 0 (at node 26)
Average accepted flit rate = 0.00957143
Maximum accepted flit rate = 0.022 (at node 56)
Average injected packet length = 1
Average accepted packet length = 1
Total in-flight flits = 22 (22 measured)
latency change    = 0.000299752
throughput change = 0.0341151
1
Class 0:
Minimum packet latency = 5
Average packet latency = 10.5726
Maximum packet latency = 12
Minimum network latency = 5
Average network latency = 10.5726
Maximum network latency = 12
Slowest packet = 3080
Minimum flit latency = 5
Average flit latency = 10.5714
Maximum flit latency = 12
Slowest flit = 3080
Minimum fragmentation = 0
Average fragmentation = 0
Maximum fragmentation = 0
Minimum injected packet rate = 0.002 (at node 165)
Average injected packet rate = 0.00981633
Maximum injected packet rate = 0.019 (at node 92)
Minimum accepted packet rate = 0.002 (at node 149)
Average accepted packet rate = 0.00982143
Maximum accepted packet rate = 0.017 (at node 25)
Minimum injected flit rate = 0.002 (at node 165)
Average injected flit rate = 0.00981633
Maximum injected flit rate = 0.019 (at node 92)
Minimum accepted flit rate = 0.002 (at node 149)
Average accepted flit rate = 0.00982143
Maximum accepted flit rate = 0.017 (at node 25)
Average injected packet length = 1
Average accepted packet length = 1
Total in-flight flits = 15 (15 measured)
latency change    = 0.00080962
throughput change = 0.0254545
1
Class 0:
Minimum packet latency = 5
Average packet latency = 10.5525
Maximum packet latency = 12
Minimum network latency = 5
Average network latency = 10.5525
Maximum network latency = 12
Slowest packet = 3080
Minimum flit latency = 5
Average flit latency = 10.5519
Maximum flit latency = 12
Slowest flit = 3080
Minimum fragmentation = 0
Average fragmentation = 0
Maximum fragmentation = 0
Minimum injected packet rate = 0.004 (at node 59)
Average injected packet rate = 0.00977211
Maximum injected packet rate = 0.0173333 (at node 92)
Minimum accepted packet rate = 0.00333333 (at node 158)
Average accepted packet rate = 0.0097381
Maximum accepted packet rate = 0.0166667 (at node 47)
Minimum injected flit rate = 0.004 (at node 59)
Average injected flit rate = 0.00977211
Maximum injected flit rate = 0.0173333 (at node 92)
Minimum accepted flit rate = 0.00333333 (at node 158)
Average accepted flit rate = 0.0097381
Maximum accepted flit rate = 0.0166667 (at node 47)
Average injected packet length = 1
Average accepted packet length = 1
Total in-flight flits = 26 (26 measured)
latency change    = 0.00189904
throughput change = 0.00855746
Draining all recorded packets ...
Draining remaining packets ...
Time taken is 3026 cycles
====== Traffic class 0 ======
Overall minimum packet latency = 5 (1 samples)
Overall average packet latency = 10.5538 (1 samples)
Overall maximum packet latency = 12 (1 samples)
Overall minimum network latency = 5 (1 samples)
Overall average network latency = 10.5538 (1 samples)
Overall maximum network latency = 12 (1 samples)
Overall minimum flit latency = 5 (1 samples)
Overall average flit latency = 10.5539 (1 samples)
Overall maximum flit latency = 12 (1 samples)
Overall minimum fragmentation = 0 (1 samples)
Overall average fragmentation = 0 (1 samples)
Overall maximum fragmentation = 0 (1 samples)
Overall minimum injected packet rate = 0.004 (1 samples)
Overall average injected packet rate = 0.00977211 (1 samples)
Overall maximum injected packet rate = 0.0173333 (1 samples)
Overall minimum accepted packet rate = 0.00333333 (1 samples)
Overall average accepted packet rate = 0.0097381 (1 samples)
Overall maximum accepted packet rate = 0.0166667 (1 samples)
Overall minimum injected flit rate = 0.004 (1 samples)
Overall average injected flit rate = 0.00977211 (1 samples)
Overall maximum injected flit rate = 0.0173333 (1 samples)
Overall minimum accepted flit rate = 0.00333333 (1 samples)
Overall average accepted flit rate = 0.0097381 (1 samples)
Overall maximum accepted flit rate = 0.0166667 (1 samples)
Overall average injected packet size = 1 (1 samples)
Overall average accepted packet size = 1 (1 samples)
Overall average hops = 2.85033 (1 samples)
Total run time 4.27017
