BEGIN Configuration File: ./FBF-3.conf
injection_rate = 0.3;
traffic = uniform;
routing_function = ran_min;
vc_buf_size = 16;
topology = flatfly;
use_noc_latency = 0;
hold_switch_for_packet=0;

c = 1;
k = 14;
n = 2;

x  = 14;
y  = 14;
xr = 1;
yr = 1;

packet_size  = 1;
num_vcs      = 2;
vc_allocator = separable_input_first; 
sw_allocator = separable_input_first;

alloc_iters   = 1;
sample_period = 500;

wait_for_tail_credit = 0;
use_read_write       = 0;

credit_delay   = 2;
routing_delay  = 0;
vc_alloc_delay = 1;
sw_alloc_delay = 1;
st_final_delay = 1;

input_speedup     = 1;
output_speedup    = 1;
internal_speedup  = 2.0;

warmup_periods = 3;
sim_count      = 1;

priority = none;
injection_rate_uses_flits=1;

END Configuration File: ./FBF-3.conf
Number of nodes: 196
Number of routers: 196
 Flat Bufferfly 
 k = 14 n = 2 c = 1
 each switch - total radix =  27
 # of switches = 196
 # of channels = 5096
 # of nodes ( size of network ) = 196
0
Class 0:
Minimum packet latency = 5
Average packet latency = 10.7923
Maximum packet latency = 16
Minimum network latency = 5
Average network latency = 10.7923
Maximum network latency = 16
Slowest packet = 16247
Minimum flit latency = 5
Average flit latency = 10.7923
Maximum flit latency = 16
Slowest flit = 16247
Minimum fragmentation = 0
Average fragmentation = 0
Maximum fragmentation = 0
Minimum injected packet rate = 0.244 (at node 100)
Average injected packet rate = 0.299061
Maximum injected packet rate = 0.352 (at node 14)
Minimum accepted packet rate = 0.234 (at node 141)
Average accepted packet rate = 0.292459
Maximum accepted packet rate = 0.362 (at node 115)
Minimum injected flit rate = 0.244 (at node 100)
Average injected flit rate = 0.299061
Maximum injected flit rate = 0.352 (at node 14)
Minimum accepted flit rate = 0.234 (at node 141)
Average accepted flit rate = 0.292459
Maximum accepted flit rate = 0.362 (at node 115)
Average injected packet length = 1
Average accepted packet length = 1
Total in-flight flits = 647 (0 measured)
latency change    = 1
throughput change = 1
0
Class 0:
Minimum packet latency = 5
Average packet latency = 10.7899
Maximum packet latency = 18
Minimum network latency = 5
Average network latency = 10.7899
Maximum network latency = 18
Slowest packet = 37400
Minimum flit latency = 5
Average flit latency = 10.7899
Maximum flit latency = 18
Slowest flit = 37400
Minimum fragmentation = 0
Average fragmentation = 0
Maximum fragmentation = 0
Minimum injected packet rate = 0.262 (at node 1)
Average injected packet rate = 0.298903
Maximum injected packet rate = 0.334 (at node 168)
Minimum accepted packet rate = 0.251 (at node 81)
Average accepted packet rate = 0.295781
Maximum accepted packet rate = 0.348 (at node 100)
Minimum injected flit rate = 0.262 (at node 1)
Average injected flit rate = 0.298903
Maximum injected flit rate = 0.334 (at node 168)
Minimum accepted flit rate = 0.251 (at node 81)
Average accepted flit rate = 0.295781
Maximum accepted flit rate = 0.348 (at node 100)
Average injected packet length = 1
Average accepted packet length = 1
Total in-flight flits = 612 (0 measured)
latency change    = 0.000215438
throughput change = 0.0112294
0
Class 0:
Minimum packet latency = 5
Average packet latency = 10.7788
Maximum packet latency = 15
Minimum network latency = 5
Average network latency = 10.7788
Maximum network latency = 15
Slowest packet = 62758
Minimum flit latency = 5
Average flit latency = 10.7788
Maximum flit latency = 15
Slowest flit = 62758
Minimum fragmentation = 0
Average fragmentation = 0
Maximum fragmentation = 0
Minimum injected packet rate = 0.252 (at node 169)
Average injected packet rate = 0.297439
Maximum injected packet rate = 0.366 (at node 15)
Minimum accepted packet rate = 0.234 (at node 81)
Average accepted packet rate = 0.297551
Maximum accepted packet rate = 0.36 (at node 60)
Minimum injected flit rate = 0.252 (at node 169)
Average injected flit rate = 0.297439
Maximum injected flit rate = 0.366 (at node 15)
Minimum accepted flit rate = 0.234 (at node 81)
Average accepted flit rate = 0.297551
Maximum accepted flit rate = 0.36 (at node 60)
Average injected packet length = 1
Average accepted packet length = 1
Total in-flight flits = 601 (0 measured)
latency change    = 0.00103259
throughput change = 0.00594993
Warmed up ...Time used is 1500 cycles
1
Class 0:
Minimum packet latency = 5
Average packet latency = 10.7757
Maximum packet latency = 17
Minimum network latency = 5
Average network latency = 10.7757
Maximum network latency = 17
Slowest packet = 106521
Minimum flit latency = 5
Average flit latency = 10.7787
Maximum flit latency = 17
Slowest flit = 106521
Minimum fragmentation = 0
Average fragmentation = 0
Maximum fragmentation = 0
Minimum injected packet rate = 0.236 (at node 78)
Average injected packet rate = 0.299837
Maximum injected packet rate = 0.36 (at node 37)
Minimum accepted packet rate = 0.234 (at node 61)
Average accepted packet rate = 0.299082
Maximum accepted packet rate = 0.376 (at node 183)
Minimum injected flit rate = 0.236 (at node 78)
Average injected flit rate = 0.299837
Maximum injected flit rate = 0.36 (at node 37)
Minimum accepted flit rate = 0.234 (at node 61)
Average accepted flit rate = 0.299082
Maximum accepted flit rate = 0.376 (at node 183)
Average injected packet length = 1
Average accepted packet length = 1
Total in-flight flits = 675 (675 measured)
latency change    = 0.000290143
throughput change = 0.00511771
1
Class 0:
Minimum packet latency = 5
Average packet latency = 10.7811
Maximum packet latency = 17
Minimum network latency = 5
Average network latency = 10.7811
Maximum network latency = 17
Slowest packet = 106521
Minimum flit latency = 5
Average flit latency = 10.7825
Maximum flit latency = 17
Slowest flit = 106521
Minimum fragmentation = 0
Average fragmentation = 0
Maximum fragmentation = 0
Minimum injected packet rate = 0.261 (at node 150)
Average injected packet rate = 0.300413
Maximum injected packet rate = 0.346 (at node 136)
Minimum accepted packet rate = 0.259 (at node 74)
Average accepted packet rate = 0.300112
Maximum accepted packet rate = 0.354 (at node 26)
Minimum injected flit rate = 0.261 (at node 150)
Average injected flit rate = 0.300413
Maximum injected flit rate = 0.346 (at node 136)
Minimum accepted flit rate = 0.259 (at node 74)
Average accepted flit rate = 0.300112
Maximum accepted flit rate = 0.354 (at node 26)
Average injected packet length = 1
Average accepted packet length = 1
Total in-flight flits = 660 (660 measured)
latency change    = 0.000500456
throughput change = 0.00343409
1
Class 0:
Minimum packet latency = 5
Average packet latency = 10.7836
Maximum packet latency = 17
Minimum network latency = 5
Average network latency = 10.7836
Maximum network latency = 17
Slowest packet = 106521
Minimum flit latency = 5
Average flit latency = 10.7845
Maximum flit latency = 17
Slowest flit = 106521
Minimum fragmentation = 0
Average fragmentation = 0
Maximum fragmentation = 0
Minimum injected packet rate = 0.268667 (at node 109)
Average injected packet rate = 0.300663
Maximum injected packet rate = 0.338667 (at node 37)
Minimum accepted packet rate = 0.267333 (at node 180)
Average accepted packet rate = 0.300554
Maximum accepted packet rate = 0.333333 (at node 26)
Minimum injected flit rate = 0.268667 (at node 109)
Average injected flit rate = 0.300663
Maximum injected flit rate = 0.338667 (at node 37)
Minimum accepted flit rate = 0.267333 (at node 180)
Average accepted flit rate = 0.300554
Maximum accepted flit rate = 0.333333 (at node 26)
Average injected packet length = 1
Average accepted packet length = 1
Total in-flight flits = 633 (633 measured)
latency change    = 0.000229554
throughput change = 0.0014712
Draining all recorded packets ...
Draining remaining packets ...
Time taken is 3031 cycles
====== Traffic class 0 ======
Overall minimum packet latency = 5 (1 samples)
Overall average packet latency = 10.7845 (1 samples)
Overall maximum packet latency = 17 (1 samples)
Overall minimum network latency = 5 (1 samples)
Overall average network latency = 10.7845 (1 samples)
Overall maximum network latency = 17 (1 samples)
Overall minimum flit latency = 5 (1 samples)
Overall average flit latency = 10.7848 (1 samples)
Overall maximum flit latency = 17 (1 samples)
Overall minimum fragmentation = 0 (1 samples)
Overall average fragmentation = 0 (1 samples)
Overall maximum fragmentation = 0 (1 samples)
Overall minimum injected packet rate = 0.268667 (1 samples)
Overall average injected packet rate = 0.300663 (1 samples)
Overall maximum injected packet rate = 0.338667 (1 samples)
Overall minimum accepted packet rate = 0.267333 (1 samples)
Overall average accepted packet rate = 0.300554 (1 samples)
Overall maximum accepted packet rate = 0.333333 (1 samples)
Overall minimum injected flit rate = 0.268667 (1 samples)
Overall average injected flit rate = 0.300663 (1 samples)
Overall maximum injected flit rate = 0.338667 (1 samples)
Overall minimum accepted flit rate = 0.267333 (1 samples)
Overall average accepted flit rate = 0.300554 (1 samples)
Overall maximum accepted flit rate = 0.333333 (1 samples)
Overall average injected packet size = 1 (1 samples)
Overall average accepted packet size = 1 (1 samples)
Overall average hops = 2.85682 (1 samples)
Total run time 17.0728
